<?xml version="1.0" encoding="UTF-8"?>

<!-- generated on 2025-07-24 19:22:18 by Eclipse SUMO netedit Version 1.21.0
<neteditConfiguration xmlns:xsi="http://www.w3.org/2001/XMLSchema-instance" xsi:noNamespaceSchemaLocation="http://sumo.dlr.de/xsd/neteditConfiguration.xsd">

    <input>
        <sumo-net-file value="D:\desktop\SwarmPlanner-Risk-scenario-construction-suidao\SwarmPlanner-Risk-scenario-construction\collect_accident_data_rou\Tunnel.net.xml"/>
    </input>

    <output>
        <output-file value="D:\desktop\SwarmPlanner-Risk-scenario-construction-suidao\SwarmPlanner-Risk-scenario-construction\collect_accident_data_rou\Tunnel.net.xml"/>
    </output>

    <processing>
        <geometry.min-radius.fix.railways value="false"/>
        <geometry.max-grade.fix value="false"/>
        <offset.disable-normalization value="true"/>
        <lefthand value="0"/>
    </processing>

    <junctions>
        <no-turnarounds value="true"/>
        <junctions.corner-detail value="5"/>
        <junctions.limit-turn-speed value="5.50"/>
        <rectangular-lane-cut value="1"/>
    </junctions>

    <pedestrian>
        <walkingareas value="0"/>
    </pedestrian>

</neteditConfiguration>
-->

<net version="1.20" junctionCornerDetail="5" rectangularLaneCut="true" limitTurnSpeed="5.50" xmlns:xsi="http://www.w3.org/2001/XMLSchema-instance" xsi:noNamespaceSchemaLocation="http://sumo.dlr.de/xsd/net_file.xsd">

    <location netOffset="778.86,340.54" convBoundary="0.00,0.00,1478.02,1094.94" origBoundary="0.000000,0.000000,0.000000,0.000000" projParameter="+proj=tmerc +lat_0=38.32316 +lon_0=-85.61946 +k=1 +x_0=0 +y_0=0 +datum=WGS84 +units=m +vunits=m +no_defs"/>

    <type id="driving" priority="1" speed="13.89" disallow="pedestrian tram rail_urban rail rail_electric rail_fast ship container cable_car subway aircraft wheelchair scooter drone" width="3.65"/>

    <edge id=":1#1_0" function="internal">
        <lane id=":1#1_0_0" index="0" disallow="pedestrian tram rail_urban rail rail_electric rail_fast ship container cable_car subway aircraft wheelchair scooter drone" speed="22.22" length="0.31" width="3.50" shape="622.25,462.45,156.41 622.18,462.51,156.40 622.14,462.56,156.38 622.10,462.61,156.37 622.04,462.66,156.35"/>
        <lane id=":1#1_0_1" index="1" disallow="pedestrian tram rail_urban rail rail_electric rail_fast ship container cable_car subway aircraft wheelchair scooter drone" speed="22.22" length="0.31" width="3.50" shape="620.15,459.65,156.41 620.08,459.71,156.40 620.04,459.76,156.38 620.00,459.81,156.37 619.93,459.87,156.35"/>
    </edge>
    <edge id=":16#1_0" function="internal">
        <lane id=":16#1_0_0" index="0" disallow="pedestrian tram rail_urban rail rail_electric rail_fast ship container cable_car subway aircraft wheelchair scooter drone" speed="22.22" length="1.04" width="3.50" shape="260.08,827.98,141.21 260.24,827.81,141.21 260.34,827.68,141.21 260.42,827.55,141.21 260.55,827.36,141.21"/>
        <lane id=":16#1_0_1" index="1" disallow="pedestrian tram rail_urban rail rail_electric rail_fast ship container cable_car subway aircraft wheelchair scooter drone" speed="22.22" length="1.04" width="3.50" shape="262.59,830.42,141.21 262.86,830.14,141.21 263.02,829.93,141.21 263.18,829.72,141.21 263.40,829.40,141.21"/>
    </edge>
    <edge id=":19#1_0" function="internal">
        <lane id=":19#1_0_0" index="0" disallow="pedestrian tram rail_urban rail rail_electric rail_fast ship container cable_car subway aircraft wheelchair scooter drone" speed="29.06" length="0.30" width="3.50" shape="546.51,316.34,175.53 546.44,316.05,175.55"/>
        <lane id=":19#1_0_1" index="1" disallow="pedestrian tram rail_urban rail rail_electric rail_fast ship container cable_car subway aircraft wheelchair scooter drone" speed="29.06" length="0.30" width="3.50" shape="549.91,315.50,175.53 549.84,315.21,175.55"/>
        <lane id=":19#1_0_2" index="2" disallow="pedestrian tram rail_urban rail rail_electric rail_fast ship container cable_car subway aircraft wheelchair scooter drone" speed="29.06" length="0.30" width="3.50" shape="553.31,314.66,175.53 553.23,314.37,175.55"/>
        <lane id=":19#1_0_3" index="3" disallow="pedestrian tram rail_urban rail rail_electric rail_fast ship container cable_car subway aircraft wheelchair scooter drone" speed="29.06" length="0.30" width="3.50" shape="556.70,313.82,175.53 556.63,313.53,175.55"/>
        <lane id=":19#1_0_4" index="4" disallow="pedestrian tram rail_urban rail rail_electric rail_fast ship container cable_car subway aircraft wheelchair scooter drone" speed="29.06" length="0.30" width="3.50" shape="560.10,312.99,175.53 560.03,312.69,175.55"/>
    </edge>
    <edge id=":19#2_0" function="internal">
        <lane id=":19#2_0_0" index="0" disallow="pedestrian tram rail_urban rail rail_electric rail_fast ship container cable_car subway aircraft wheelchair scooter drone" speed="29.06" length="8.08" width="3.50" shape="544.87,309.69,175.87 544.07,307.42,175.99 543.19,305.98,176.07 542.31,304.54,176.15 541.51,302.27,176.27"/>
        <lane id=":19#2_0_1" index="1" disallow="pedestrian tram rail_urban rail rail_electric rail_fast ship container cable_car subway aircraft wheelchair scooter drone" speed="29.06" length="8.08" width="3.50" shape="548.27,308.85,175.87 547.47,306.58,175.99 546.59,305.14,176.07 545.71,303.71,176.15 544.91,301.44,176.27"/>
        <lane id=":19#2_0_2" index="2" disallow="pedestrian tram rail_urban rail rail_electric rail_fast ship container cable_car subway aircraft wheelchair scooter drone" speed="29.06" length="8.08" width="3.50" shape="551.66,308.01,175.87 549.76,300.24,176.27"/>
        <lane id=":19#2_0_3" index="3" disallow="pedestrian tram rail_urban rail rail_electric rail_fast ship container cable_car subway aircraft wheelchair scooter drone" speed="29.06" length="8.08" width="3.50" shape="555.06,307.17,175.87 553.15,299.40,176.27"/>
        <lane id=":19#2_0_4" index="4" disallow="pedestrian tram rail_urban rail rail_electric rail_fast ship container cable_car subway aircraft wheelchair scooter drone" speed="29.06" length="8.08" width="3.50" shape="558.46,306.33,175.87 556.55,298.57,176.27"/>
    </edge>
    <edge id=":19#3_0" function="internal">
        <lane id=":19#3_0_0" index="0" disallow="pedestrian tram rail_urban rail rail_electric rail_fast ship container cable_car subway aircraft wheelchair scooter drone" speed="29.06" length="3.64" width="3.50" shape="537.21,284.82,177.17 533.02,282.76,177.31"/>
        <lane id=":19#3_0_1" index="1" disallow="pedestrian tram rail_urban rail rail_electric rail_fast ship container cable_car subway aircraft wheelchair scooter drone" speed="29.06" length="3.64" width="3.50" shape="540.61,283.98,177.17 536.41,281.93,177.31"/>
        <lane id=":19#3_0_2" index="2" allow="emergency authority" speed="29.06" length="3.64" width="5.07" shape="543.03,283.39,177.17 540.57,280.90,177.31"/>
        <lane id=":19#3_0_3" index="3" disallow="pedestrian tram rail_urban rail rail_electric rail_fast ship container cable_car subway aircraft wheelchair scooter drone" speed="29.06" length="3.64" width="3.50" shape="545.45,282.79,177.17 544.74,279.88,177.31"/>
        <lane id=":19#3_0_4" index="4" disallow="pedestrian tram rail_urban rail rail_electric rail_fast ship container cable_car subway aircraft wheelchair scooter drone" speed="29.06" length="3.64" width="3.50" shape="548.85,281.95,177.17 548.13,279.04,177.31"/>
        <lane id=":19#3_0_5" index="5" disallow="pedestrian tram rail_urban rail rail_electric rail_fast ship container cable_car subway aircraft wheelchair scooter drone" speed="29.06" length="3.64" width="3.50" shape="552.25,281.11,177.17 551.53,278.20,177.31"/>
    </edge>
    <edge id=":19#4_0" function="internal">
        <lane id=":19#4_0_0" index="0" disallow="pedestrian tram rail_urban rail rail_electric rail_fast ship container cable_car subway aircraft wheelchair scooter drone" speed="29.06" length="0.30" width="3.50" shape="522.69,243.68,179.34 522.61,243.39,179.36"/>
        <lane id=":19#4_0_1" index="1" disallow="pedestrian tram rail_urban rail rail_electric rail_fast ship container cable_car subway aircraft wheelchair scooter drone" speed="29.06" length="0.30" width="3.50" shape="526.07,242.77,179.34 525.99,242.48,179.36"/>
        <lane id=":19#4_0_2" index="2" disallow="pedestrian tram rail_urban rail rail_electric rail_fast ship container cable_car subway aircraft wheelchair scooter drone" speed="29.06" length="0.30" width="5.07" shape="530.20,241.65,179.34 530.13,241.36,179.36"/>
        <lane id=":19#4_0_3" index="3" disallow="pedestrian tram rail_urban rail rail_electric rail_fast ship container cable_car subway aircraft wheelchair scooter drone" speed="29.06" length="0.30" width="3.50" shape="534.34,240.53,179.34 534.26,240.24,179.36"/>
        <lane id=":19#4_0_4" index="4" disallow="pedestrian tram rail_urban rail rail_electric rail_fast ship container cable_car subway aircraft wheelchair scooter drone" speed="29.06" length="0.30" width="3.50" shape="537.72,239.62,179.34 537.64,239.33,179.36"/>
        <lane id=":19#4_0_5" index="5" disallow="pedestrian tram rail_urban rail rail_electric rail_fast ship container cable_car subway aircraft wheelchair scooter drone" speed="29.06" length="0.30" width="3.50" shape="541.10,238.71,179.34 541.02,238.42,179.36"/>
    </edge>
    <edge id=":23_0" function="internal">
        <lane id=":23_0_0" index="0" disallow="pedestrian tram rail_urban rail rail_electric rail_fast ship container cable_car subway aircraft wheelchair scooter drone" speed="29.06" length="78.12" width="3.50" shape="576.07,405.33,174.58 556.98,329.58,174.76">
            <param key="signalID" value="93 98 99 97 91 92"/>
        </lane>
    </edge>
    <edge id=":23_1" function="internal">
        <lane id=":23_1_0" index="0" disallow="pedestrian tram rail_urban rail rail_electric rail_fast ship container cable_car subway aircraft wheelchair scooter drone" speed="16.92" length="30.93" width="3.50" shape="576.07,405.33,174.58 574.52,396.18,174.58 574.50,388.15,174.59 576.01,381.24,174.59 579.06,375.45,174.59"/>
    </edge>
    <edge id=":23_2" function="internal">
        <lane id=":23_2_0" index="0" disallow="pedestrian tram rail_urban rail rail_electric rail_fast ship container cable_car subway aircraft wheelchair scooter drone" speed="29.06" length="78.15" width="3.50" shape="579.48,404.52,174.58 560.38,328.74,174.76">
            <param key="signalID" value="93 98 99 97 91 92"/>
        </lane>
    </edge>
    <edge id=":23_3" function="internal">
        <lane id=":23_3_0" index="0" disallow="pedestrian tram rail_urban rail rail_electric rail_fast ship container cable_car subway aircraft wheelchair scooter drone" speed="16.09" length="27.90" width="3.50" shape="579.48,404.52,174.58 578.03,396.13,174.58 577.94,388.84,174.59 579.23,382.63,174.59 581.89,377.52,174.59"/>
    </edge>
    <edge id=":23_4" function="internal">
        <lane id=":23_4_0" index="0" disallow="pedestrian tram rail_urban rail rail_electric rail_fast ship container cable_car subway aircraft wheelchair scooter drone" speed="7.74" length="28.19" width="3.50" shape="580.49,342.80,174.64 588.54,346.09,174.62 591.86,350.34,174.61 590.46,355.55,174.60 584.32,361.72,174.58"/>
    </edge>
    <edge id=":54_0" function="internal">
        <lane id=":54_0_0" index="0" disallow="pedestrian tram rail_urban rail rail_electric rail_fast ship container cable_car subway aircraft wheelchair scooter drone" speed="22.22" length="12.74" width="3.50" shape="247.92,810.89,141.33 239.10,820.34,141.23"/>
        <lane id=":54_0_1" index="1" disallow="pedestrian tram rail_urban rail rail_electric rail_fast ship container cable_car subway aircraft wheelchair scooter drone" speed="22.22" length="12.74" width="3.50" shape="245.36,808.50,141.33 236.79,817.69,141.23"/>
    </edge>
    <edge id=":57_0" function="internal">
        <lane id=":57_0_0" index="0" disallow="pedestrian tram rail_urban rail rail_electric rail_fast ship container cable_car subway aircraft wheelchair scooter drone" speed="25.64" length="8.00" width="3.50" shape="903.04,284.35,168.05 909.96,280.31,168.32"/>
        <lane id=":57_0_1" index="1" disallow="pedestrian tram rail_urban rail rail_electric rail_fast ship container cable_car subway aircraft wheelchair scooter drone" speed="25.64" length="8.00" width="3.50" shape="904.81,287.37,168.05 911.70,283.34,168.32"/>
    </edge>
    <edge id=":6#1_0" function="internal">
        <lane id=":6#1_0_0" index="0" allow="emergency authority" speed="17.81" length="3.11" width="3.50" shape="679.88,321.92,177.20 679.01,322.27,177.18 678.50,322.70,177.16 677.98,323.12,177.15 677.11,323.46,177.12"/>
        <lane id=":6#1_0_1" index="1" disallow="pedestrian tram rail_urban rail rail_electric rail_fast ship container cable_car subway aircraft wheelchair scooter drone" speed="22.22" length="3.11" width="3.50" shape="679.25,319.35,177.20 676.32,320.05,177.12"/>
    </edge>
    <edge id=":6#2_0" function="internal">
        <lane id=":6#2_0_0" index="0" disallow="pedestrian tram rail_urban rail rail_electric rail_fast ship container cable_car subway aircraft wheelchair scooter drone" speed="22.22" length="8.00" width="3.50" shape="733.40,304.35,178.63 725.75,306.69,178.42"/>
    </edge>
    <edge id=":62_0" function="internal">
        <lane id=":62_0_0" index="0" disallow="pedestrian tram rail_urban rail rail_electric rail_fast ship container cable_car subway aircraft wheelchair scooter drone" speed="29.06" length="111.66" width="3.50" shape="1343.82,55.62,181.05 1445.92,10.42,181.00"/>
        <lane id=":62_0_1" index="1" disallow="pedestrian tram rail_urban rail rail_electric rail_fast ship container cable_car subway aircraft wheelchair scooter drone" speed="29.06" length="111.66" width="3.50" shape="1345.24,58.82,181.05 1447.34,13.62,181.00"/>
        <lane id=":62_0_2" index="2" disallow="pedestrian tram rail_urban rail rail_electric rail_fast ship container cable_car subway aircraft wheelchair scooter drone" speed="29.06" length="111.66" width="3.50" shape="1346.65,62.02,181.05 1448.75,16.82,181.00"/>
        <lane id=":62_0_3" index="3" disallow="pedestrian tram rail_urban rail rail_electric rail_fast ship container cable_car subway aircraft wheelchair scooter drone" speed="29.06" length="111.66" width="3.50" shape="1348.07,65.22,181.05 1450.17,20.02,181.00"/>
    </edge>
    <edge id=":62_4" function="internal">
        <lane id=":62_4_0" index="0" disallow="pedestrian tram rail_urban rail rail_electric rail_fast ship container cable_car subway aircraft wheelchair scooter drone" speed="22.36" length="108.93" width="3.50" shape="1355.35,73.63,181.00 1450.17,20.02,181.00"/>
    </edge>
    <edge id=":70_0" function="internal">
        <lane id=":70_0_0" index="0" disallow="pedestrian tram rail_urban rail rail_electric rail_fast ship container cable_car subway aircraft wheelchair scooter drone" speed="22.22" length="8.21" width="3.50" shape="591.97,360.69,174.58 600.10,359.59,174.62"/>
    </edge>
    <edge id=":70_1" function="internal">
        <lane id=":70_1_0" index="0" disallow="pedestrian tram rail_urban rail rail_electric rail_fast ship container cable_car subway aircraft wheelchair scooter drone" speed="22.22" length="9.81" width="3.50" shape="590.64,365.78,174.59 593.43,364.51,174.60 595.43,363.84,174.60 597.51,363.46,174.61 600.56,363.06,174.62"/>
        <lane id=":70_1_1" index="1" disallow="pedestrian tram rail_urban rail rail_electric rail_fast ship container cable_car subway aircraft wheelchair scooter drone" speed="22.22" length="9.81" width="3.50" shape="592.17,368.93,174.59 594.66,367.80,174.60 596.44,367.21,174.60 598.30,366.88,174.61 601.03,366.53,174.62"/>
    </edge>
    <edge id=":80_0" function="internal">
        <lane id=":80_0_0" index="0" disallow="pedestrian tram rail_urban rail rail_electric rail_fast ship container cable_car subway aircraft wheelchair scooter drone" speed="18.93" length="73.17" width="3.50" shape="662.90,354.71,174.91 735.78,348.11,175.18"/>
    </edge>
    <edge id=":84_0" function="internal">
        <lane id=":84_0_0" index="0" disallow="pedestrian tram rail_urban rail rail_electric rail_fast ship container cable_car subway aircraft wheelchair scooter drone" speed="22.22" length="0.46" width="3.50" shape="629.35,476.76,156.19 629.60,476.56,156.55"/>
        <lane id=":84_0_1" index="1" disallow="pedestrian tram rail_urban rail rail_electric rail_fast ship container cable_car subway aircraft wheelchair scooter drone" speed="22.22" length="0.46" width="3.50" shape="631.60,479.44,156.19 631.80,479.28,156.55"/>
    </edge>
    <edge id=":9#1_0" function="internal">
        <lane id=":9#1_0_0" index="0" disallow="pedestrian tram rail_urban rail rail_electric rail_fast ship container cable_car subway aircraft wheelchair scooter drone" speed="29.06" length="8.14" width="3.50" shape="593.97,638.46,172.32 593.70,636.05,172.40 593.10,634.45,172.46 592.49,632.85,172.52 592.22,630.45,172.60"/>
        <lane id=":9#1_0_1" index="1" disallow="pedestrian tram rail_urban rail rail_electric rail_fast ship container cable_car subway aircraft wheelchair scooter drone" speed="29.06" length="8.14" width="3.50" shape="597.47,638.48,172.32 597.20,636.07,172.40 596.60,634.47,172.46 595.99,632.87,172.52 595.72,630.47,172.60"/>
        <lane id=":9#1_0_2" index="2" disallow="pedestrian tram rail_urban rail rail_electric rail_fast ship container cable_car subway aircraft wheelchair scooter drone" speed="29.06" length="8.14" width="3.50" shape="600.97,638.49,172.32 601.01,630.49,172.60"/>
        <lane id=":9#1_0_3" index="3" disallow="pedestrian tram rail_urban rail rail_electric rail_fast ship container cable_car subway aircraft wheelchair scooter drone" speed="29.06" length="8.14" width="3.50" shape="604.47,638.51,172.32 604.51,630.51,172.60"/>
    </edge>
    <edge id=":9#2_0" function="internal">
        <lane id=":9#2_0_0" index="0" disallow="pedestrian tram rail_urban rail rail_electric rail_fast ship container cable_car subway aircraft wheelchair scooter drone" speed="29.06" length="3.27" width="3.50" shape="592.28,618.76,173.02 592.02,617.80,173.05 591.44,617.25,173.07 590.85,616.70,173.09 590.59,615.75,173.12"/>
        <lane id=":9#2_0_1" index="1" disallow="pedestrian tram rail_urban rail rail_electric rail_fast ship container cable_car subway aircraft wheelchair scooter drone" speed="29.06" length="3.27" width="3.50" shape="595.78,618.77,173.02 595.52,617.82,173.05 594.94,617.27,173.07 594.35,616.72,173.09 594.09,615.76,173.12"/>
        <lane id=":9#2_0_2" index="2" allow="emergency authority" speed="29.06" length="3.27" width="3.50" shape="598.43,618.79,173.02 598.30,617.88,173.05 598.01,617.29,173.07 597.72,616.69,173.09 597.59,615.78,173.12"/>
        <lane id=":9#2_0_3" index="3" disallow="pedestrian tram rail_urban rail rail_electric rail_fast ship container cable_car subway aircraft wheelchair scooter drone" speed="29.06" length="3.27" width="3.50" shape="601.07,618.80,173.02 601.09,615.80,173.12"/>
        <lane id=":9#2_0_4" index="4" disallow="pedestrian tram rail_urban rail rail_electric rail_fast ship container cable_car subway aircraft wheelchair scooter drone" speed="29.06" length="3.27" width="3.50" shape="604.57,618.82,173.02 604.59,615.82,173.12"/>
    </edge>
    <edge id=":9#3_0" function="internal">
        <lane id=":9#3_0_0" index="0" disallow="pedestrian tram rail_urban rail rail_electric rail_fast ship container cable_car subway aircraft wheelchair scooter drone" speed="29.06" length="0.30" width="3.50" shape="590.67,600.77,173.65 590.67,600.47,173.67"/>
        <lane id=":9#3_0_1" index="1" disallow="pedestrian tram rail_urban rail rail_electric rail_fast ship container cable_car subway aircraft wheelchair scooter drone" speed="29.06" length="0.30" width="3.50" shape="594.17,600.79,173.65 594.17,600.49,173.67"/>
        <lane id=":9#3_0_2" index="2" disallow="pedestrian tram rail_urban rail rail_electric rail_fast ship container cable_car subway aircraft wheelchair scooter drone" speed="29.06" length="0.30" width="3.50" shape="597.67,600.81,173.65 597.67,600.51,173.67"/>
        <lane id=":9#3_0_3" index="3" disallow="pedestrian tram rail_urban rail rail_electric rail_fast ship container cable_car subway aircraft wheelchair scooter drone" speed="29.06" length="0.30" width="3.50" shape="601.17,600.83,173.65 601.17,600.53,173.67"/>
        <lane id=":9#3_0_4" index="4" disallow="pedestrian tram rail_urban rail rail_electric rail_fast ship container cable_car subway aircraft wheelchair scooter drone" speed="29.06" length="0.30" width="3.50" shape="604.67,600.85,173.65 604.67,600.55,173.67"/>
    </edge>
    <edge id=":9#4_0" function="internal">
        <lane id=":9#4_0_0" index="0" disallow="pedestrian tram rail_urban rail rail_electric rail_fast ship container cable_car subway aircraft wheelchair scooter drone" speed="29.06" length="8.20" width="3.50" shape="589.25,540.00,174.53 588.80,537.68,174.53 588.06,536.17,174.53 587.31,534.67,174.53 586.79,532.35,174.53"/>
        <lane id=":9#4_0_1" index="1" disallow="pedestrian tram rail_urban rail rail_electric rail_fast ship container cable_car subway aircraft wheelchair scooter drone" speed="29.06" length="8.20" width="3.50" shape="592.74,539.74,174.53 592.29,537.39,174.53 591.55,535.86,174.53 590.79,534.34,174.53 590.27,531.99,174.53"/>
        <lane id=":9#4_0_2" index="2" disallow="pedestrian tram rail_urban rail rail_electric rail_fast ship container cable_car subway aircraft wheelchair scooter drone" speed="29.06" length="8.20" width="3.50" shape="596.23,539.48,174.53 595.77,537.10,174.53 595.04,535.55,174.53 594.28,534.01,174.53 593.75,531.63,174.53"/>
        <lane id=":9#4_0_3" index="3" disallow="pedestrian tram rail_urban rail rail_electric rail_fast ship container cable_car subway aircraft wheelchair scooter drone" speed="29.06" length="8.20" width="3.50" shape="599.72,539.23,174.53 599.02,531.09,174.53"/>
        <lane id=":9#4_0_4" index="4" disallow="pedestrian tram rail_urban rail rail_electric rail_fast ship container cable_car subway aircraft wheelchair scooter drone" speed="29.06" length="8.20" width="3.50" shape="603.21,538.97,174.53 602.50,530.73,174.53"/>
    </edge>
    <edge id=":9#5_0" function="internal">
        <lane id=":9#5_0_0" index="0" disallow="pedestrian tram rail_urban rail rail_electric rail_fast ship container cable_car subway aircraft wheelchair scooter drone" speed="29.06" length="3.32" width="3.50" shape="585.88,524.24,174.53 585.49,523.34,174.53 584.84,522.88,174.54 584.19,522.42,174.54 583.80,521.52,174.54"/>
        <lane id=":9#5_0_1" index="1" disallow="pedestrian tram rail_urban rail rail_electric rail_fast ship container cable_car subway aircraft wheelchair scooter drone" speed="29.06" length="3.32" width="3.50" shape="589.35,523.79,174.53 588.96,522.88,174.53 588.31,522.42,174.54 587.66,521.96,174.54 587.27,521.06,174.54"/>
        <lane id=":9#5_0_2" index="2" disallow="pedestrian tram rail_urban rail rail_electric rail_fast ship container cable_car subway aircraft wheelchair scooter drone" speed="29.06" length="3.32" width="3.50" shape="592.82,523.34,174.53 592.43,522.43,174.53 591.78,521.97,174.54 591.13,521.50,174.54 590.74,520.59,174.54"/>
        <lane id=":9#5_0_3" index="3" allow="emergency authority" speed="29.06" length="3.32" width="3.50" shape="595.45,523.00,174.53 595.20,522.12,174.53 594.83,521.57,174.54 594.46,521.02,174.54 594.21,520.13,174.54"/>
        <lane id=":9#5_0_4" index="4" disallow="pedestrian tram rail_urban rail rail_electric rail_fast ship container cable_car subway aircraft wheelchair scooter drone" speed="29.06" length="3.32" width="3.50" shape="598.07,522.67,174.53 597.68,519.67,174.54"/>
        <lane id=":9#5_0_5" index="5" disallow="pedestrian tram rail_urban rail rail_electric rail_fast ship container cable_car subway aircraft wheelchair scooter drone" speed="29.06" length="3.32" width="3.50" shape="601.54,522.22,174.53 601.14,519.21,174.54"/>
    </edge>
    <edge id=":9#6_0" function="internal">
        <lane id=":9#6_0_0" index="0" disallow="pedestrian tram rail_urban rail rail_electric rail_fast ship container cable_car subway aircraft wheelchair scooter drone" speed="29.06" length="0.10" width="3.50" shape="582.07,509.88,174.54 582.07,509.88,174.54"/>
        <lane id=":9#6_0_1" index="1" disallow="pedestrian tram rail_urban rail rail_electric rail_fast ship container cable_car subway aircraft wheelchair scooter drone" speed="29.06" length="0.10" width="3.50" shape="585.53,509.34,174.54 585.53,509.34,174.54"/>
        <lane id=":9#6_0_2" index="2" disallow="pedestrian tram rail_urban rail rail_electric rail_fast ship container cable_car subway aircraft wheelchair scooter drone" speed="29.06" length="0.10" width="3.50" shape="588.98,508.80,174.54 588.98,508.80,174.54"/>
        <lane id=":9#6_0_3" index="3" disallow="pedestrian tram rail_urban rail rail_electric rail_fast ship container cable_car subway aircraft wheelchair scooter drone" speed="29.06" length="0.10" width="3.50" shape="592.44,508.27,174.54 592.44,508.27,174.54"/>
        <lane id=":9#6_0_4" index="4" disallow="pedestrian tram rail_urban rail rail_electric rail_fast ship container cable_car subway aircraft wheelchair scooter drone" speed="29.06" length="0.10" width="3.50" shape="595.90,507.73,174.54 595.90,507.73,174.54"/>
        <lane id=":9#6_0_5" index="5" disallow="pedestrian tram rail_urban rail rail_electric rail_fast ship container cable_car subway aircraft wheelchair scooter drone" speed="29.06" length="0.10" width="3.50" shape="599.36,507.20,174.54 599.36,507.20,174.54"/>
    </edge>

    <edge id="-18" from="80" to="62" priority="1" type="driving" shape="735.95,349.85,175.18 758.97,347.59,175.10 760.98,347.38,175.10 810.09,342.28,175.00 812.10,342.06,175.00 814.12,341.83,175.00 816.13,341.58,175.00 818.14,341.32,175.00 820.15,341.04,175.00 822.15,340.75,175.00 824.16,340.44,175.00 826.16,340.11,175.00 828.15,339.77,175.00 830.15,339.42,175.00 832.14,339.04,175.00 834.13,338.66,175.00 836.12,338.26,175.00 838.10,337.84,175.00 840.08,337.41,175.00 842.06,336.96,175.00 844.03,336.50,175.00 846.00,336.02,175.00 847.97,335.53,175.00 849.93,335.02,175.00 851.89,334.50,175.00 853.84,333.96,175.00 855.79,333.41,175.00 857.74,332.84,175.00 859.68,332.26,175.00 861.62,331.66,175.00 863.55,331.05,175.00 865.48,330.42,175.00 867.40,329.78,175.00 869.32,329.12,175.00 871.23,328.45,175.00 873.14,327.77,175.00 875.04,327.07,175.00 876.94,326.35,175.00 878.83,325.62,175.00 880.71,324.88,175.00 882.59,324.12,175.00 884.47,323.35,175.00 886.33,322.56,175.00 888.19,321.76,175.00 890.05,320.94,175.00 891.90,320.11,175.00 893.74,319.27,175.00 895.58,318.41,175.00 897.41,317.54,175.00 899.23,316.65,175.00 901.05,315.75,175.00 902.86,314.84,175.00 904.65,313.91,175.00 905.91,313.25,175.00 1303.56,103.82,180.50 1305.34,102.88,180.56 1307.12,101.93,180.61 1308.89,100.98,180.67 1310.06,100.34,180.71 1356.19,75.17,181.00">
        <lane id="-18_0" index="0" disallow="pedestrian tram rail_urban rail rail_electric rail_fast ship container cable_car subway aircraft wheelchair scooter drone" speed="15.65" length="683.94" width="3.50" shape="735.78,348.11,175.18 758.80,345.85,175.10 760.80,345.64,175.10 809.91,340.54,175.00 811.91,340.32,175.00 813.91,340.09,175.00 815.91,339.84,175.00 817.91,339.59,175.00 819.90,339.31,175.00 821.89,339.02,175.00 823.88,338.71,175.00 825.87,338.38,175.00 827.85,338.05,175.00 829.84,337.70,175.00 831.81,337.32,175.00 833.79,336.94,175.00 835.77,336.55,175.00 837.73,336.13,175.00 839.70,335.70,175.00 841.67,335.25,175.00 843.62,334.80,175.00 845.58,334.32,175.00 847.54,333.83,175.00 849.49,333.33,175.00 851.43,332.81,175.00 853.37,332.27,175.00 855.31,331.73,175.00 857.24,331.16,175.00 859.17,330.59,175.00 861.10,329.99,175.00 863.01,329.38,175.00 864.93,328.76,175.00 866.84,328.12,175.00 868.75,327.47,175.00 870.65,326.80,175.00 872.54,326.12,175.00 874.43,325.43,175.00 876.31,324.72,175.00 878.19,323.99,175.00 880.06,323.25,175.00 881.93,322.50,175.00 883.80,321.73,175.00 885.64,320.95,175.00 887.49,320.16,175.00 889.34,319.34,175.00 891.18,318.52,175.00 893.01,317.68,175.00 894.83,316.83,175.00 896.65,315.96,175.00 898.46,315.08,175.00 900.27,314.18,175.00 902.06,313.28,175.00 903.84,312.36,175.00 905.10,311.70,175.00 1302.74,102.27,180.50 1304.52,101.33,180.56 1306.29,100.39,180.61 1308.06,99.44,180.67 1309.22,98.80,180.71 1355.35,73.63,181.00" type="driving"/>
    </edge>
    <edge id="-19#0" from="23" to="19#1" priority="1" type="driving" shape="565.48,327.48,174.76 561.77,312.44,175.54">
        <lane id="-19#0_0" index="0" disallow="pedestrian tram rail_urban rail rail_electric rail_fast ship container cable_car subway aircraft wheelchair scooter drone" speed="29.06" length="15.38" width="3.50" shape="550.19,331.25,174.76 546.51,316.34,175.53" type="driving"/>
        <lane id="-19#0_1" index="1" disallow="pedestrian tram rail_urban rail rail_electric rail_fast ship container cable_car subway aircraft wheelchair scooter drone" speed="29.06" length="15.38" width="3.50" shape="553.59,330.41,174.76 549.91,315.50,175.53" type="driving"/>
        <lane id="-19#0_2" index="2" disallow="pedestrian tram rail_urban rail rail_electric rail_fast ship container cable_car subway aircraft wheelchair scooter drone" speed="29.06" length="15.38" width="3.50" shape="556.98,329.58,174.76 553.31,314.66,175.53" type="driving"/>
        <lane id="-19#0_3" index="3" disallow="pedestrian tram rail_urban rail rail_electric rail_fast ship container cable_car subway aircraft wheelchair scooter drone" speed="29.06" length="15.38" width="3.50" shape="560.38,328.74,174.76 556.70,313.82,175.53" type="driving"/>