<?xml version="1.0" encoding="UTF-8"?>

<!-- generated on 2025-09-08 20:24:39 by Eclipse SUMO netedit Version 1.23.1
<neteditConfiguration xmlns:xsi="http://www.w3.org/2001/XMLSchema-instance" xsi:noNamespaceSchemaLocation="http://sumo.dlr.de/xsd/neteditConfiguration.xsd">

    <input>
        <sumo-net-file value="D:\BIT\code\scene 10\Sumo_Carla\SuZhou\SuzhouNorthStation.net.xml"/>
    </input>

    <output>
        <output-file value="D:\BIT\code\scene 10\Sumo_Carla\SuZhou\SuzhouNorthStation.net.xml"/>
    </output>

    <processing>
        <geometry.min-radius.fix.railways value="false"/>
        <geometry.avoid-overlap value="false"/>
        <geometry.max-grade.fix value="false"/>
        <offset.disable-normalization value="true"/>
        <lefthand value="0"/>
    </processing>

    <junctions>
        <no-turnarounds value="true"/>
        <junctions.corner-detail value="5"/>
        <junctions.limit-turn-speed value="5.50"/>
        <rectangular-lane-cut value="1"/>
    </junctions>

    <pedestrian>
        <walkingareas value="0"/>
    </pedestrian>

</neteditConfiguration>
-->

<net version="1.20" junctionCornerDetail="5" rectangularLaneCut="true" limitTurnSpeed="5.50" avoidOverlap="0" xmlns:xsi="http://www.w3.org/2001/XMLSchema-instance" xsi:noNamespaceSchemaLocation="http://sumo.dlr.de/xsd/net_file.xsd">

    <location netOffset="-579.86,105.77" convBoundary="0.00,0.00,828.87,330.32" origBoundary="579.99,-105.77,1408.73,224.55" projParameter="!"/>

    <type id="driving" priority="1" speed="13.89" disallow="pedestrian tram rail_urban rail rail_electric rail_fast ship container cable_car subway aircraft wheelchair scooter drone" width="3.65"/>

    <edge id=":0.begin_0" function="internal">
        <lane id=":0.begin_0_0" index="0" disallow="pedestrian tram rail_urban rail rail_electric rail_fast ship container cable_car subway aircraft wheelchair scooter drone" speed="4.49" length="8.02" width="3.50" shape="724.24,63.27,0.09 725.74,61.30,0.09 727.15,60.70,0.09 728.48,61.47,0.09 729.73,63.61,0.09"/>
    </edge>
    <edge id=":1.end_0" function="internal">
        <lane id=":1.end_0_0" index="0" disallow="pedestrian tram rail_urban rail rail_electric rail_fast ship container cable_car subway aircraft wheelchair scooter drone" speed="4.49" length="8.02" width="3.50" shape="713.28,330.43,0.09 711.78,332.40,0.09 710.37,333.00,0.09 709.04,332.23,0.09 707.79,330.09,0.09"/>
    </edge>
    <edge id=":2.begin_0" function="internal">
        <lane id=":2.begin_0_0" index="0" disallow="pedestrian tram rail_urban rail rail_electric rail_fast ship container cable_car subway aircraft wheelchair scooter drone" speed="3.82" length="5.11" width="3.50" shape="525.99,0.01,0.11 526.86,-1.31,0.11 527.73,-1.75,0.11 528.61,-1.32,0.11 529.49,-0.01,0.11"/>
    </edge>
    <edge id=":21.begin_0" function="internal">
        <lane id=":21.begin_0_0" index="0" disallow="pedestrian tram rail_urban rail rail_electric rail_fast ship container cable_car subway aircraft wheelchair scooter drone" speed="3.82" length="5.11" width="3.50" shape="348.55,5.47,0.13 349.50,4.21,0.13 350.40,3.82,0.13 351.25,4.31,0.13 352.05,5.67,0.13"/>
    </edge>
    <edge id=":22.begin_0" function="internal">
        <lane id=":22.begin_0_0" index="0" disallow="pedestrian tram rail_urban rail rail_electric rail_fast ship container cable_car subway aircraft wheelchair scooter drone" speed="5.40" length="10.22" width="7.00" shape="518.45,191.00,0.13 516.69,193.62,0.13 514.94,194.49,0.13 513.19,193.61,0.13 511.45,190.98,0.13"/>
    </edge>
    <edge id=":23_0" function="internal">
        <lane id=":23_0_0" index="0" disallow="pedestrian tram rail_urban rail rail_electric rail_fast ship container cable_car subway aircraft wheelchair scooter drone" speed="8.73" length="17.25" width="3.50" shape="739.17,195.76 734.53,196.07,0.02 731.11,197.86,0.04 728.93,201.11,0.06 727.97,205.83,0.09"/>
    </edge>
    <edge id=":23_1" function="internal">
        <lane id=":23_1_0" index="0" disallow="pedestrian tram rail_urban rail rail_electric rail_fast ship container cable_car subway aircraft wheelchair scooter drone" speed="17.88" length="43.68" width="3.50" shape="739.45,192.27 695.92,188.79"/>
        <lane id=":23_1_1" index="1" disallow="pedestrian tram rail_urban rail rail_electric rail_fast ship container cable_car subway aircraft wheelchair scooter drone" speed="17.88" length="43.68" width="3.50" shape="739.73,188.78 696.19,185.30"/>
        <lane id=":23_1_2" index="2" disallow="pedestrian tram rail_urban rail rail_electric rail_fast ship container cable_car subway aircraft wheelchair scooter drone" speed="17.88" length="43.68" width="3.50" shape="740.01,185.29 696.46,181.81"/>
        <lane id=":23_1_3" index="3" disallow="pedestrian tram rail_urban rail rail_electric rail_fast ship container cable_car subway aircraft wheelchair scooter drone" speed="17.88" length="43.68" width="4.30" shape="740.32,181.40 696.76,177.92"/>
    </edge>
    <edge id=":23_5" function="internal">
        <lane id=":23_5_0" index="0" disallow="pedestrian tram rail_urban rail rail_electric rail_fast ship container cable_car subway aircraft wheelchair scooter drone" speed="13.18" length="39.37" width="3.50" shape="740.32,181.40 733.44,177.50,0.02 726.32,168.88,0.04 720.85,158.72,0.07 718.88,150.19,0.09"/>
    </edge>
    <edge id=":23_6" function="internal">
        <lane id=":23_6_0" index="0" disallow="pedestrian tram rail_urban rail rail_electric rail_fast ship container cable_car subway aircraft wheelchair scooter drone" speed="9.56" length="20.33" width="3.73" shape="731.35,150.96,0.09 731.67,157.10,0.06 733.48,161.60,0.04 736.77,164.49,0.02 741.56,165.74"/>
    </edge>
    <edge id=":23_7" function="internal">
        <lane id=":23_7_0" index="0" disallow="pedestrian tram rail_urban rail rail_electric rail_fast ship container cable_car subway aircraft wheelchair scooter drone" speed="17.88" length="54.97" width="3.50" shape="731.35,150.96,0.09 727.97,205.83,0.09"/>
        <lane id=":23_7_1" index="1" disallow="pedestrian tram rail_urban rail rail_electric rail_fast ship container cable_car subway aircraft wheelchair scooter drone" speed="17.88" length="54.97" width="3.50" shape="727.86,150.75,0.09 724.48,205.61,0.09"/>
        <lane id=":23_7_2" index="2" disallow="pedestrian tram rail_urban rail rail_electric rail_fast ship container cable_car subway aircraft wheelchair scooter drone" speed="17.88" length="54.97" width="3.50" shape="724.37,150.53,0.09 720.99,205.40,0.09"/>
    </edge>
    <edge id=":23_10" function="internal">
        <lane id=":23_10_0" index="0" disallow="pedestrian tram rail_urban rail rail_electric rail_fast ship container cable_car subway aircraft wheelchair scooter drone" speed="13.16" length="40.56" width="4.30" shape="724.37,150.53,0.09 721.07,158.65,0.07 713.67,167.81,0.04 704.72,175.18,0.02 696.76,177.92"/>
    </edge>
    <edge id=":23_11" function="internal">
        <lane id=":23_11_0" index="0" disallow="pedestrian tram rail_urban rail rail_electric rail_fast ship container cable_car subway aircraft wheelchair scooter drone" speed="9.04" length="18.52" width="3.50" shape="698.24,158.63 703.99,158.45,0.03 708.18,156.92,0.05 710.81,154.02,0.07 711.90,149.76,0.09"/>
    </edge>
    <edge id=":23_12" function="internal">
        <lane id=":23_12_0" index="0" disallow="pedestrian tram rail_urban rail rail_electric rail_fast ship container cable_car subway aircraft wheelchair scooter drone" speed="17.88" length="43.86" width="3.73" shape="698.24,158.63 741.56,165.74"/>
        <lane id=":23_12_1" index="1" disallow="pedestrian tram rail_urban rail rail_electric rail_fast ship container cable_car subway aircraft wheelchair scooter drone" speed="17.88" length="43.86" width="3.50" shape="697.97,162.25 741.27,169.34"/>
        <lane id=":23_12_2" index="2" disallow="pedestrian tram rail_urban rail rail_electric rail_fast ship container cable_car subway aircraft wheelchair scooter drone" speed="17.88" length="43.86" width="3.50" shape="697.69,165.86 741.00,172.83"/>
        <lane id=":23_12_3" index="3" disallow="pedestrian tram rail_urban rail rail_electric rail_fast ship container cable_car subway aircraft wheelchair scooter drone" speed="17.88" length="43.86" width="2.00" shape="697.42,169.35 740.78,175.57"/>
    </edge>
    <edge id=":23_16" function="internal">
        <lane id=":23_16_0" index="0" disallow="pedestrian tram rail_urban rail rail_electric rail_fast ship container cable_car subway aircraft wheelchair scooter drone" speed="13.52" length="42.27" width="3.50" shape="697.20,172.25 704.54,176.46,0.02 712.45,185.74,0.04 718.68,196.57,0.07 720.99,205.40,0.09"/>
    </edge>
    <edge id=":23_17" function="internal">
        <lane id=":23_17_0" index="0" disallow="pedestrian tram rail_urban rail rail_electric rail_fast ship container cable_car subway aircraft wheelchair scooter drone" speed="9.55" length="20.32" width="3.50" shape="705.01,204.41,0.09 704.79,197.86,0.06 703.20,193.08,0.04 700.24,190.06,0.02 695.92,188.79"/>
    </edge>
    <edge id=":23_18" function="internal">
        <lane id=":23_18_0" index="0" disallow="pedestrian tram rail_urban rail rail_electric rail_fast ship container cable_car subway aircraft wheelchair scooter drone" speed="17.88" length="55.08" width="3.50" shape="705.01,204.41,0.09 711.90,149.76,0.09"/>
        <lane id=":23_18_1" index="1" disallow="pedestrian tram rail_urban rail rail_electric rail_fast ship container cable_car subway aircraft wheelchair scooter drone" speed="17.88" length="55.08" width="3.50" shape="708.51,204.62,0.09 715.39,149.98,0.09"/>
        <lane id=":23_18_2" index="2" disallow="pedestrian tram rail_urban rail rail_electric rail_fast ship container cable_car subway aircraft wheelchair scooter drone" speed="17.88" length="55.08" width="3.50" shape="712.00,204.84,0.09 718.88,150.19,0.09"/>
    </edge>
    <edge id=":23_21" function="internal">
        <lane id=":23_21_0" index="0" disallow="pedestrian tram rail_urban rail rail_electric rail_fast ship container cable_car subway aircraft wheelchair scooter drone" speed="13.12" length="40.34" width="2.00" shape="715.49,205.05,0.09 718.55,196.61,0.07 725.33,186.75,0.04 733.52,178.66,0.02 740.78,175.57"/>
    </edge>
    <edge id=":288_0" function="internal">
        <lane id=":288_0_0" index="0" disallow="pedestrian tram rail_urban rail rail_electric rail_fast ship container cable_car subway aircraft wheelchair scooter drone" speed="8.76" length="18.06" width="3.50" shape="351.88,161.58 346.41,161.79,0.05 342.50,163.41,0.08 340.13,166.44,0.11 339.32,170.88,0.15"/>
    </edge>
    <edge id=":288_1" function="internal">
        <lane id=":288_1_0" index="0" disallow="pedestrian tram rail_urban rail rail_electric rail_fast ship container cable_car subway aircraft wheelchair scooter drone" speed="17.88" length="22.59" width="3.50" shape="352.15,158.09 329.63,156.30"/>
        <lane id=":288_1_1" index="1" disallow="pedestrian tram rail_urban rail rail_electric rail_fast ship container cable_car subway aircraft wheelchair scooter drone" speed="17.88" length="22.59" width="3.50" shape="352.43,154.60 329.91,152.81"/>
        <lane id=":288_1_2" index="2" disallow="pedestrian tram rail_urban rail rail_electric rail_fast ship container cable_car subway aircraft wheelchair scooter drone" speed="17.88" length="22.59" width="4.19" shape="352.73,150.76 330.21,148.98"/>
    </edge>
    <edge id=":288_4" function="internal">
        <lane id=":288_4_0" index="0" disallow="pedestrian tram rail_urban rail rail_electric rail_fast ship container cable_car subway aircraft wheelchair scooter drone" speed="9.11" length="17.96" width="3.50" shape="346.64,120.70,0.13 346.92,126.80,0.09 348.24,131.24,0.05 350.59,134.03,0.03 353.97,135.17"/>
    </edge>
    <edge id=":288_5" function="internal">
        <lane id=":288_5_0" index="0" disallow="pedestrian tram rail_urban rail rail_electric rail_fast ship container cable_car subway aircraft wheelchair scooter drone" speed="8.59" length="16.92" width="3.50" shape="331.75,129.88 336.61,129.61,0.04 340.12,127.97,0.07 342.30,124.96,0.10 343.14,120.58,0.13"/>
    </edge>
    <edge id=":288_6" function="internal">
        <lane id=":288_6_0" index="0" disallow="pedestrian tram rail_urban rail rail_electric rail_fast ship container cable_car subway aircraft wheelchair scooter drone" speed="17.88" length="22.54" width="3.50" shape="331.49,133.37 353.97,135.17"/>
        <lane id=":288_6_1" index="1" disallow="pedestrian tram rail_urban rail rail_electric rail_fast ship container cable_car subway aircraft wheelchair scooter drone" speed="17.88" length="22.54" width="3.50" shape="331.23,136.86 353.69,138.66"/>
        <lane id=":288_6_2" index="2" disallow="pedestrian tram rail_urban rail rail_electric rail_fast ship container cable_car subway aircraft wheelchair scooter drone" speed="17.88" length="22.54" width="3.50" shape="330.96,140.35 353.42,142.15"/>
    </edge>
    <edge id=":288_9" function="internal">
        <lane id=":288_9_0" index="0" disallow="pedestrian tram rail_urban rail rail_electric rail_fast ship container cable_car subway aircraft wheelchair scooter drone" speed="8.43" length="14.91" width="1.83" shape="335.82,170.86,0.15 335.45,165.84,0.10 334.26,162.19,0.06 332.25,159.90,0.03 329.41,158.96"/>
    </edge>
    <edge id=":3.end_0" function="internal">
        <lane id=":3.end_0_0" index="0" disallow="pedestrian tram rail_urban rail rail_electric rail_fast ship container cable_car subway aircraft wheelchair scooter drone" speed="3.82" length="5.11" width="3.50" shape="339.09,200.30,0.15 338.20,201.61,0.15 337.33,202.04,0.15 336.45,201.60,0.15 335.59,200.28,0.15"/>
    </edge>
    <edge id=":328_0" function="internal">
        <lane id=":328_0_0" index="0" disallow="pedestrian tram rail_urban rail rail_electric rail_fast ship container cable_car subway aircraft wheelchair scooter drone" speed="12.93" length="40.83" width="7.00" shape="556.13,177.77 539.67,177.13,0.05 527.90,178.16,0.09 520.84,180.87,0.11 518.47,185.25,0.13"/>
    </edge>
    <edge id=":328_1" function="internal">
        <lane id=":328_1_0" index="0" disallow="pedestrian tram rail_urban rail rail_electric rail_fast ship container cable_car subway aircraft wheelchair scooter drone" speed="17.88" length="53.04" width="3.50" shape="556.13,177.77 503.26,173.59"/>
        <lane id=":328_1_1" index="1" disallow="pedestrian tram rail_urban rail rail_electric rail_fast ship container cable_car subway aircraft wheelchair scooter drone" speed="17.88" length="53.04" width="3.50" shape="556.40,174.28 503.53,170.10"/>
        <lane id=":328_1_2" index="2" disallow="pedestrian tram rail_urban rail rail_electric rail_fast ship container cable_car subway aircraft wheelchair scooter drone" speed="17.88" length="53.04" width="3.50" shape="556.68,170.79 503.81,166.61"/>
        <lane id=":328_1_3" index="3" disallow="pedestrian tram rail_urban rail rail_electric rail_fast ship container cable_car subway aircraft wheelchair scooter drone" speed="17.88" length="53.04" width="4.25" shape="556.98,166.92 504.11,162.75"/>
    </edge>
    <edge id=":328_5" function="internal">
        <lane id=":328_5_0" index="0" disallow="pedestrian tram rail_urban rail rail_electric rail_fast ship container cable_car subway aircraft wheelchair scooter drone" speed="13.50" length="42.43" width="1.80" shape="523.12,136.33,0.11 524.85,142.87,0.09 531.24,147.94,0.07 542.30,151.56,0.04 558.02,153.71"/>
    </edge>
    <edge id=":328_6" function="internal">
        <lane id=":328_6_0" index="0" disallow="pedestrian tram rail_urban rail rail_electric rail_fast ship container cable_car subway aircraft wheelchair scooter drone" speed="9.58" length="20.64" width="3.50" shape="505.34,147.18 511.21,146.87,0.03 515.55,144.92,0.06 518.36,141.30,0.08 519.64,136.03,0.11"/>
    </edge>
    <edge id=":328_7" function="internal">
        <lane id=":328_7_0" index="0" disallow="pedestrian tram rail_urban rail rail_electric rail_fast ship container cable_car subway aircraft wheelchair scooter drone" speed="17.88" length="53.06" width="1.80" shape="505.34,147.18 558.02,153.71"/>
        <lane id=":328_7_1" index="1" disallow="pedestrian tram rail_urban rail rail_electric rail_fast ship container cable_car subway aircraft wheelchair scooter drone" speed="17.88" length="53.06" width="3.50" shape="505.07,150.67 557.82,156.35"/>
        <lane id=":328_7_2" index="2" disallow="pedestrian tram rail_urban rail rail_electric rail_fast ship container cable_car subway aircraft wheelchair scooter drone" speed="17.88" length="53.06" width="3.50" shape="504.79,154.16 557.54,159.84"/>
    </edge>
    <edge id=":328_10" function="internal">
        <lane id=":328_10_0" index="0" disallow="pedestrian tram rail_urban rail rail_electric rail_fast ship container cable_car subway aircraft wheelchair scooter drone" speed="8.97" length="15.91" width="3.50" shape="511.47,185.23,0.13 510.97,180.38,0.09 509.44,176.83,0.06 506.86,174.56,0.03 503.26,173.59"/>
    </edge>
    <edge id=":4.begin_0" function="internal">
        <lane id=":4.begin_0_0" index="0" disallow="pedestrian tram rail_urban rail rail_electric rail_fast ship container cable_car subway aircraft wheelchair scooter drone" speed="4.36" length="8.53" width="4.31" shape="828.80,182.57 830.87,184.21 831.48,185.72 830.63,187.12 828.33,188.40"/>
    </edge>
    <edge id=":5#1_0" function="internal">
        <lane id=":5#1_0_0" index="0" disallow="pedestrian tram rail_urban rail rail_electric rail_fast ship container cable_car subway aircraft wheelchair scooter drone" speed="17.88" length="0.33" width="3.50" shape="693.21,188.58 692.87,188.56"/>
        <lane id=":5#1_0_1" index="1" disallow="pedestrian tram rail_urban rail rail_electric rail_fast ship container cable_car subway aircraft wheelchair scooter drone" speed="17.88" length="0.33" width="3.50" shape="693.48,185.09 693.15,185.07"/>
        <lane id=":5#1_0_2" index="2" disallow="pedestrian tram rail_urban rail rail_electric rail_fast ship container cable_car subway aircraft wheelchair scooter drone" speed="17.88" length="0.33" width="3.50" shape="693.74,181.60 693.42,181.58"/>
        <lane id=":5#1_0_3" index="3" disallow="pedestrian tram rail_urban rail rail_electric rail_fast ship container cable_car subway aircraft wheelchair scooter drone" speed="17.88" length="0.33" width="4.30" shape="694.04,177.72 693.73,177.69"/>
    </edge>
    <edge id=":5#1_4" function="internal">
        <lane id=":5#1_4_0" index="0" disallow="pedestrian tram rail_urban rail rail_electric rail_fast ship container cable_car subway aircraft wheelchair scooter drone" speed="17.88" length="0.38" width="3.50" shape="695.29,158.14 695.52,158.42"/>
        <lane id=":5#1_4_1" index="1" disallow="pedestrian tram rail_urban rail rail_electric rail_fast ship container cable_car subway aircraft wheelchair scooter drone" speed="17.88" length="0.38" width="3.75" shape="695.00,161.76 695.24,162.04"/>
        <lane id=":5#1_4_2" index="2" disallow="pedestrian tram rail_urban rail rail_electric rail_fast ship container cable_car subway aircraft wheelchair scooter drone" speed="17.88" length="0.38" width="3.50" shape="694.71,165.37 694.97,165.65"/>
        <lane id=":5#1_4_3" index="3" disallow="pedestrian tram rail_urban rail rail_electric rail_fast ship container cable_car subway aircraft wheelchair scooter drone" speed="17.88" length="0.38" width="3.50" shape="694.43,168.86 694.70,169.14"/>
        <lane id=":5#1_4_4" index="4" disallow="pedestrian tram rail_urban rail rail_electric rail_fast ship container cable_car subway aircraft wheelchair scooter drone" speed="17.88" length="0.38" width="2.32" shape="694.20,171.76 694.48,172.04"/>
    </edge>
    <edge id=":5#2_0" function="internal">
        <lane id=":5#2_0_0" index="0" disallow="pedestrian tram rail_urban rail rail_electric rail_fast ship container cable_car subway aircraft wheelchair scooter drone" speed="17.88" length="3.00" width="3.50" shape="630.12,183.61 627.13,183.36"/>
        <lane id=":5#2_0_1" index="1" disallow="pedestrian tram rail_urban rail rail_electric rail_fast ship container cable_car subway aircraft wheelchair scooter drone" speed="17.88" length="3.00" width="3.50" shape="630.40,180.12 627.41,179.87"/>
        <lane id=":5#2_0_2" index="2" disallow="pedestrian tram rail_urban rail rail_electric rail_fast ship container cable_car subway aircraft wheelchair scooter drone" speed="17.88" length="3.00" width="3.50" shape="630.67,176.63 627.68,176.38"/>
        <lane id=":5#2_0_3" index="3" disallow="pedestrian tram rail_urban rail rail_electric rail_fast ship container cable_car subway aircraft wheelchair scooter drone" speed="17.88" length="3.00" width="4.29" shape="630.97,172.74 627.98,172.50"/>
    </edge>
    <edge id=":5#2_4" function="internal">
        <lane id=":5#2_4_0" index="0" disallow="pedestrian tram rail_urban rail rail_electric rail_fast ship container cable_car subway aircraft wheelchair scooter drone" speed="17.88" length="3.05" width="3.75" shape="629.19,157.14 630.09,157.12 630.71,156.97 631.32,156.82 632.22,156.81"/>
        <lane id=":5#2_4_1" index="1" disallow="pedestrian tram rail_urban rail rail_electric rail_fast ship container cable_car subway aircraft wheelchair scooter drone" speed="17.88" length="3.05" width="3.50" shape="628.91,160.70 629.81,160.69 630.43,160.56 631.04,160.43 631.94,160.42"/>
        <lane id=":5#2_4_2" index="2" disallow="pedestrian tram rail_urban rail rail_electric rail_fast ship container cable_car subway aircraft wheelchair scooter drone" speed="17.88" length="3.05" width="3.50" shape="628.64,164.19 629.54,164.18 630.15,164.05 630.77,163.92 631.67,163.91"/>
        <lane id=":5#2_4_3" index="3" allow="emergency authority" speed="17.88" length="3.05" width="2.32" shape="628.43,166.84 631.44,166.81"/>
    </edge>
    <edge id=":5#3_0" function="internal">
        <lane id=":5#3_0_0" index="0" disallow="pedestrian tram rail_urban rail rail_electric rail_fast ship container cable_car subway aircraft wheelchair scooter drone" speed="17.88" length="3.00" width="3.50" shape="578.14,179.52 575.15,179.26"/>
        <lane id=":5#3_0_1" index="1" disallow="pedestrian tram rail_urban rail rail_electric rail_fast ship container cable_car subway aircraft wheelchair scooter drone" speed="17.88" length="3.00" width="3.50" shape="578.41,176.03 575.42,175.77"/>
        <lane id=":5#3_0_2" index="2" disallow="pedestrian tram rail_urban rail rail_electric rail_fast ship container cable_car subway aircraft wheelchair scooter drone" speed="17.88" length="3.00" width="3.50" shape="578.68,172.54 575.70,172.28"/>
        <lane id=":5#3_0_3" index="3" disallow="pedestrian tram rail_urban rail rail_electric rail_fast ship container cable_car subway aircraft wheelchair scooter drone" speed="17.88" length="3.00" width="4.27" shape="578.99,168.66 576.00,168.41"/>
    </edge>
    <edge id=":5#3_4" function="internal">
        <lane id=":5#3_4_0" index="0" disallow="pedestrian tram rail_urban rail rail_electric rail_fast ship container cable_car subway aircraft wheelchair scooter drone" speed="17.88" length="3.35" width="3.66" shape="577.04,155.20 580.20,153.29"/>
        <lane id=":5#3_4_1" index="1" disallow="pedestrian tram rail_urban rail rail_electric rail_fast ship container cable_car subway aircraft wheelchair scooter drone" speed="17.88" length="3.35" width="3.50" shape="576.83,157.84 577.77,157.72 578.37,157.35 578.98,156.98 579.92,156.86"/>
        <lane id=":5#3_4_2" index="2" disallow="pedestrian tram rail_urban rail rail_electric rail_fast ship container cable_car subway aircraft wheelchair scooter drone" speed="17.88" length="3.35" width="3.50" shape="576.56,161.33 577.49,161.21 578.10,160.84 578.71,160.47 579.64,160.35"/>
        <lane id=":5#3_4_3" index="3" allow="emergency authority" speed="17.88" length="3.35" width="1.80" shape="576.40,163.36 577.30,163.34 577.91,163.18 578.53,163.01 579.43,162.99"/>
    </edge>
    <edge id=":7#1_0" function="internal">
        <lane id=":7#1_0_0" index="0" disallow="pedestrian tram rail_urban rail rail_electric rail_fast ship container cable_car subway aircraft wheelchair scooter drone" speed="17.88" length="3.00" width="3.50" shape="363.22,162.53 360.24,162.24"/>
        <lane id=":7#1_0_1" index="1" disallow="pedestrian tram rail_urban rail rail_electric rail_fast ship container cable_car subway aircraft wheelchair scooter drone" speed="17.88" length="3.00" width="3.50" shape="363.50,159.04 360.51,158.75"/>
        <lane id=":7#1_0_2" index="2" disallow="pedestrian tram rail_urban rail rail_electric rail_fast ship container cable_car subway aircraft wheelchair scooter drone" speed="17.88" length="3.00" width="3.50" shape="363.78,155.55 360.79,155.26"/>
        <lane id=":7#1_0_3" index="3" disallow="pedestrian tram rail_urban rail rail_electric rail_fast ship container cable_car subway aircraft wheelchair scooter drone" speed="17.88" length="3.00" width="4.20" shape="364.08,151.69 361.09,151.43"/>
    </edge>
    <edge id=":7#1_4" function="internal">
        <lane id=":7#1_4_0" index="0" disallow="pedestrian tram rail_urban rail rail_electric rail_fast ship container cable_car subway aircraft wheelchair scooter drone" speed="17.88" length="3.00" width="3.50" shape="362.33,135.83 365.31,136.12"/>
        <lane id=":7#1_4_1" index="1" disallow="pedestrian tram rail_urban rail rail_electric rail_fast ship container cable_car subway aircraft wheelchair scooter drone" speed="17.88" length="3.00" width="3.50" shape="362.05,139.32 365.04,139.60"/>
        <lane id=":7#1_4_2" index="2" disallow="pedestrian tram rail_urban rail rail_electric rail_fast ship container cable_car subway aircraft wheelchair scooter drone" speed="17.88" length="3.00" width="3.50" shape="361.77,142.81 364.76,143.09"/>
    </edge>
    <edge id=":9#1_0" function="internal">
        <lane id=":9#1_0_0" index="0" disallow="pedestrian tram rail_urban rail rail_electric rail_fast ship container cable_car subway aircraft wheelchair scooter drone" speed="17.88" length="3.18" width="3.43" shape="329.21,156.27 326.19,159.50"/>
        <lane id=":9#1_0_1" index="1" disallow="pedestrian tram rail_urban rail rail_electric rail_fast ship container cable_car subway aircraft wheelchair scooter drone" speed="17.88" length="3.18" width="3.50" shape="329.21,156.27 326.46,156.05"/>
        <lane id=":9#1_0_2" index="2" disallow="pedestrian tram rail_urban rail rail_electric rail_fast ship container cable_car subway aircraft wheelchair scooter drone" speed="17.88" length="3.18" width="3.50" shape="329.49,152.78 326.74,152.56"/>
        <lane id=":9#1_0_3" index="3" disallow="pedestrian tram rail_urban rail rail_electric rail_fast ship container cable_car subway aircraft wheelchair scooter drone" speed="17.88" length="3.18" width="4.19" shape="329.80,148.95 327.04,148.73"/>
    </edge>
    <edge id=":9#1_4" function="internal">
        <lane id=":9#1_4_0" index="0" disallow="pedestrian tram rail_urban rail rail_electric rail_fast ship container cable_car subway aircraft wheelchair scooter drone" speed="17.88" length="2.64" width="3.50" shape="328.55,129.64 331.16,129.84"/>
        <lane id=":9#1_4_1" index="1" disallow="pedestrian tram rail_urban rail rail_electric rail_fast ship container cable_car subway aircraft wheelchair scooter drone" speed="17.88" length="2.64" width="3.50" shape="328.27,133.12 330.90,133.33"/>
        <lane id=":9#1_4_2" index="2" disallow="pedestrian tram rail_urban rail rail_electric rail_fast ship container cable_car subway aircraft wheelchair scooter drone" speed="17.88" length="2.64" width="3.50" shape="328.00,136.61 330.64,136.82"/>
        <lane id=":9#1_4_3" index="3" disallow="pedestrian tram rail_urban rail rail_electric rail_fast ship container cable_car subway aircraft wheelchair scooter drone" speed="17.88" length="2.64" width="3.50" shape="327.72,140.10 330.38,140.31"/>
    </edge>
    <edge id=":9#2_0" function="internal">
        <lane id=":9#2_0_0" index="0" disallow="pedestrian tram rail_urban rail rail_electric rail_fast ship container cable_car subway aircraft wheelchair scooter drone" speed="17.88" length="7.69" width="3.50" shape="325.99,159.49 318.31,159.06"/>
        <lane id=":9#2_0_1" index="1" disallow="pedestrian tram rail_urban rail rail_electric rail_fast ship container cable_car subway aircraft wheelchair scooter drone" speed="17.88" length="7.69" width="3.50" shape="326.26,156.03 318.59,155.58"/>
        <lane id=":9#2_0_2" index="2" disallow="pedestrian tram rail_urban rail rail_electric rail_fast ship container cable_car subway aircraft wheelchair scooter drone" speed="17.88" length="7.69" width="3.50" shape="326.54,152.54 318.86,152.09"/>
        <lane id=":9#2_0_3" index="3" disallow="pedestrian tram rail_urban rail rail_electric rail_fast ship container cable_car subway aircraft wheelchair scooter drone" speed="17.88" length="7.69" width="4.34" shape="326.84,148.71 319.17,148.18"/>
    </edge>
    <edge id=":9#2_4" function="internal">
        <lane id=":9#2_4_0" index="0" disallow="pedestrian tram rail_urban rail rail_electric rail_fast ship container cable_car subway aircraft wheelchair scooter drone" speed="17.88" length="7.69" width="3.50" shape="320.69,129.00 328.35,129.62"/>
        <lane id=":9#2_4_1" index="1" disallow="pedestrian tram rail_urban rail rail_electric rail_fast ship container cable_car subway aircraft wheelchair scooter drone" speed="17.88" length="7.69" width="3.50" shape="320.41,132.49 328.08,133.11"/>
        <lane id=":9#2_4_2" index="2" disallow="pedestrian tram rail_urban rail rail_electric rail_fast ship container cable_car subway aircraft wheelchair scooter drone" speed="17.88" length="7.69" width="3.50" shape="320.14,135.98 327.80,136.60"/>