<?xml version="1.0" encoding="UTF-8"?>
<routes xmlns:xsi="http://www.w3.org/2001/XMLSchema-instance" xsi:noNamespaceSchemaLocation="http://sumo.dlr.de/xsd/routes_file.xsd">


    <vType id="vehicle.audi.a2" length="3.7186214923858643" width="1.7924479246139526" height="1.5354934930801392" vClass="passenger"/>
    <vType id="vehicle.audi.tt" length="4.147226333618164" width="2.0032031536102295" height="1.382421851158142" vClass="passenger" color="0,255,0"/>

    <vType id="aggressive_cav" length="4.147226333618164" width="2.0032031536102295" height="1.382421851158142"
            minGap="0.1"
            accel="4.0"
            decel="2.0"
            emergencyDecel="6.0"
            sigma="0.8"
            tau="0.01"
            impatience="1.0"
            lcAssertive="1.0"
            lcImpatience="1.0"
            speedFactor="1.3"
            speedDev="0.2"
            carFollowModel="Krauss"
            vClass="passenger"
            color="0,255,0"/>

    <!--
    <vType id="vehicle.audi.a2" length="3.7186214923858643" width="1.7924479246139526" height="1.5354934930801392" vClass="passenger"
       maxSpeed="60" carFollowModel="IDM" accel="2.6" decel="4.5" sigma="0.2" laneChangeModel="SL2015"
       minGap="3" lcStrategic="20.0" lcAssertive="20" lcImpatience="10" lcCooperative="-1" lcSpeedGain="5"/>
    -->

    <route edges="-2 -8" id="highway_route"/>


    <vehicle id="hdv_3_0" type="vehicle.audi.a2" route="highway_route" depart="1" departLane="3" departPos="80" departSpeed="28" />
    <vehicle id="cav_3_0" type="aggressive_cav" route="highway_route" depart="1" departLane="3" departPos="60" departSpeed="28"/>
    <vehicle id="hdv_3_1" type="vehicle.audi.a2" route="highway_route" depart="1" departLane="3" departPos="40" departSpeed="28" />

    <vehicle id="cav_2_0" type="vehicle.audi.tt" route="highway_route" depart="3" departLane="2" departPos="60" departSpeed="28"/>
    <vehicle id="hdv_2_0" type="vehicle.audi.a2" route="highway_route" depart="3" departLane="2" departPos="50" departSpeed="28" />
    <vehicle id="cav_2_1" type="vehicle.audi.tt" route="highway_route" depart="3" departLane="2" departPos="40" departSpeed="28"/>


    <vehicle id="hdv_1_0" type="vehicle.audi.a2" route="highway_route" depart="5" departLane="1" departPos="75" departSpeed="28" />
    <vehicle id="hdv_1_1" type="vehicle.audi.a2" route="highway_route" depart="5" departLane="1" departPos="65" departSpeed="28" />


    <vehicle id="hdv_0_0" type="vehicle.audi.a2" route="highway_route" depart="5" departLane="0" departPos="50" departSpeed="28" />


</routes>