<?xml version="1.0" encoding="UTF-8"?>
<routes xmlns:xsi="http://www.w3.org/2001/XMLSchema-instance" xsi:noNamespaceSchemaLocation="http://sumo.dlr.de/xsd/routes_file.xsd">



    <vType id="vehicle.carlamotors.carlacola"
           carFollowModel="Krauss"
           accel="1.0"
           decel="4.0"
           sigma="0"
           tau="1.5"
           length="11"
           minGap="3.0"
           maxSpeed="35"
           guiShape="truck/semitrailer"
           vClass="trailer"/>


    <vType id="vehicle.jeep.wrangler_rubicon" carFollowModel="Krauss" accel="4" decel="4.5" sigma="0.7" tau="0.01" length="5.0" minGap="0.5" maxSpeed="50" guiShape="passenger"
           laneChangeModel="SL2015"
           lcStrategic="0.5"  
           lcAssertive="1000"    
           lcSpeedGain="0.1"
           lcKeepRight="0">
    </vType>
    
    <route edges="-2 -8" id="highway_route"/>



    <!-- <vehicle id="lead_truck_01" type="vehicle.mitsubishi.fusorosa" route="highway_route" depart="0" departLane="1" departPos="200" departSpeed="28"/>
    <vehicle id="subject_car_01" type="vehicle.jeep.wrangler_rubicon" route="highway_route" depart="0" departLane="1" departPos="150" departSpeed="28"/>
    <vehicle id="lead_truck_02" type="vehicle.mitsubishi.fusorosa" route="highway_route" depart="0" departLane="2" departPos="150" departSpeed="28"/> -->
</routes>