<?xml version="1.0" encoding="UTF-8"?>

<!-- generated on 2026-02-19 22:31:22 by Eclipse SUMO netconvert Version 1.18.0
<configuration xmlns:xsi="http://www.w3.org/2001/XMLSchema-instance" xsi:noNamespaceSchemaLocation="http://sumo.dlr.de/xsd/netconvertConfiguration.xsd">

    <input>
        <node-files value="/home/liangyunxuan/src/Sumo-Carla-simulation-for-Vehicle-Road-Cloud-Integeration/ramp/scenarios/ramp_min_v1/ramp_min_v1.nod.xml"/>
        <edge-files value="/home/liangyunxuan/src/Sumo-Carla-simulation-for-Vehicle-Road-Cloud-Integeration/ramp/scenarios/ramp_min_v1/ramp_min_v1.edg.xml"/>
    </input>

    <output>
        <output-file value="/home/liangyunxuan/src/Sumo-Carla-simulation-for-Vehicle-Road-Cloud-Integeration/ramp/scenarios/ramp_min_v1/ramp_min_v1.net.xml"/>
    </output>

</configuration>
-->

<net version="1.16" junctionCornerDetail="5" limitTurnSpeed="5.50" xmlns:xsi="http://www.w3.org/2001/XMLSchema-instance" xsi:noNamespaceSchemaLocation="http://sumo.dlr.de/xsd/net_file.xsd">

    <location netOffset="0.00,350.00" convBoundary="0.00,0.00,1000.00,350.00" origBoundary="0.00,-350.00,1000.00,0.00" projParameter="!"/>

    <edge id=":n_main_1_0" function="internal">
        <lane id=":n_main_1_0_0" index="0" speed="25.00" length="0.10" shape="200.00,348.40 200.00,348.40"/>
    </edge>
    <edge id=":n_main_2_0" function="internal">
        <lane id=":n_main_2_0_0" index="0" speed="25.00" length="0.10" shape="500.00,348.40 500.00,348.40"/>
    </edge>
    <edge id=":n_merge_0" function="internal">
        <!-- NOTE (ramp A/B test):
             Original speed="20.85". Temporarily raised to 25.00 to remove residual ramp disadvantage
             inside the merge internal edge (diagnosis). Restored to 20.85 for the baseline matrix
             with ramp vmax=16.7m/s. -->
        <lane id=":n_merge_0_0" index="0" speed="20.85" length="22.46" shape="779.58,344.98 784.43,345.86 790.65,347.00 796.88,347.98 801.76,348.40"/>
    </edge>
    <edge id=":n_merge_1" function="internal">
        <lane id=":n_merge_1_0" index="0" speed="25.00" length="22.46" shape="779.30,348.40 801.76,348.40"/>
    </edge>
    <edge id=":n_ramp_1_0" function="internal">
        <!-- NOTE (ramp A/B test):
             Original speed="3.92". Temporarily raised to 25.00 so the short internal connector does not
             force an artificial ramp speed drop right before the merge approach (diagnosis). Restored
             to 3.92 for the baseline matrix with ramp vmax=16.7m/s. -->
        <lane id=":n_ramp_1_0_0" index="0" speed="3.92" length="2.28" shape="501.60,297.29 501.68,297.90 501.93,298.36 502.35,298.69 502.94,298.87"/>
    </edge>

    <edge id="main_h1" from="n_main_0" to="n_main_1" priority="2">
        <lane id="main_h1_0" index="0" speed="25.00" length="200.00" shape="0.00,348.40 200.00,348.40"/>
    </edge>
    <edge id="main_h2" from="n_main_1" to="n_main_2" priority="2">
        <lane id="main_h2_0" index="0" speed="25.00" length="300.00" shape="200.00,348.40 500.00,348.40"/>
    </edge>
    <edge id="main_h3" from="n_main_2" to="n_merge" priority="2">
        <lane id="main_h3_0" index="0" speed="25.00" length="279.30" shape="500.00,348.40 779.30,348.40"/>
    </edge>
    <edge id="main_h4" from="n_merge" to="n_main_3" priority="2">
        <lane id="main_h4_0" index="0" speed="25.00" length="198.24" shape="801.76,348.40 1000.00,348.40"/>
    </edge>
    <edge id="ramp_h3" from="n_ramp_1" to="n_merge" priority="1">
        <!-- NOTE (ramp A/B test):
             Original speed="16.70". Temporarily raised to 25.00 to match mainline max speed (diagnosis),
             to test whether FIFO mismatch is driven by main(25) vs ramp(16.7) asymmetry rather than
             SUMO right-of-way (bit8) or our execution/commit behavior. Restored to 16.70 for the
             baseline matrix. -->
        <lane id="ramp_h3_0" index="0" speed="16.70" length="280.46" shape="502.94,298.87 779.58,344.98"/>
    </edge>
    <edge id="ramp_h5" from="n_ramp_0" to="n_ramp_1" priority="1">
        <!-- NOTE (ramp A/B test):
             Original speed="16.70". Temporarily raised to 25.00 to match mainline max speed for the
             whole ramp approach (diagnosis). Restored to 16.70 for the baseline matrix. -->
        <lane id="ramp_h5_0" index="0" speed="16.70" length="297.29" shape="501.60,0.00 501.60,297.29"/>
    </edge>

    <junction id="n_main_0" type="dead_end" x="0.00" y="350.00" incLanes="" intLanes="" shape="0.00,350.00 0.00,346.80"/>
    <junction id="n_main_1" type="priority" x="200.00" y="350.00" incLanes="main_h1_0" intLanes=":n_main_1_0_0" shape="200.00,350.00 200.00,346.80 200.00,350.00">
        <request index="0" response="0" foes="0" cont="0"/>
    </junction>
    <junction id="n_main_2" type="priority" x="500.00" y="350.00" incLanes="main_h2_0" intLanes=":n_main_2_0_0" shape="500.00,350.00 500.00,346.80 500.00,350.00">
        <request index="0" response="0" foes="0" cont="0"/>
    </junction>
    <junction id="n_main_3" type="dead_end" x="1000.00" y="350.00" incLanes="main_h4_0" intLanes="" shape="1000.00,346.80 1000.00,350.00"/>
    <junction id="n_merge" type="priority" x="800.00" y="350.00" incLanes="ramp_h3_0 main_h3_0" intLanes=":n_merge_0_0 :n_merge_1_0" shape="801.76,350.00 801.76,346.80 797.05,346.67 793.58,346.32 790.75,345.78 787.93,345.09 784.50,344.28 779.85,343.40 779.32,346.55 779.30,346.80 779.30,350.00">
        <request index="0" response="10" foes="10" cont="0"/>
        <request index="1" response="00" foes="01" cont="0"/>
    </junction>
    <junction id="n_ramp_0" type="dead_end" x="500.00" y="0.00" incLanes="" intLanes="" shape="500.00,0.00 503.20,0.00"/>
    <junction id="n_ramp_1" type="priority" x="500.00" y="300.00" incLanes="ramp_h5_0" intLanes=":n_ramp_1_0_0" shape="502.67,300.45 503.20,297.29 500.00,297.29 500.30,298.84 500.67,299.43 501.19,299.90 501.86,300.23">
        <request index="0" response="0" foes="0" cont="0"/>
    </junction>

    <connection from="main_h1" to="main_h2" fromLane="0" toLane="0" via=":n_main_1_0_0" dir="s" state="M"/>
    <connection from="main_h2" to="main_h3" fromLane="0" toLane="0" via=":n_main_2_0_0" dir="s" state="M"/>
    <connection from="main_h3" to="main_h4" fromLane="0" toLane="0" via=":n_merge_1_0" dir="s" state="M"/>
    <connection from="ramp_h3" to="main_h4" fromLane="0" toLane="0" via=":n_merge_0_0" dir="s" state="m"/>
    <connection from="ramp_h5" to="ramp_h3" fromLane="0" toLane="0" via=":n_ramp_1_0_0" dir="r" state="M"/>

    <connection from=":n_main_1_0" to="main_h2" fromLane="0" toLane="0" dir="s" state="M"/>
    <connection from=":n_main_2_0" to="main_h3" fromLane="0" toLane="0" dir="s" state="M"/>
    <connection from=":n_merge_0" to="main_h4" fromLane="0" toLane="0" dir="s" state="M"/>
    <connection from=":n_merge_1" to="main_h4" fromLane="0" toLane="0" dir="s" state="M"/>
    <connection from=":n_ramp_1_0" to="ramp_h3" fromLane="0" toLane="0" dir="r" state="M"/>

</net>
