<?xml version="1.0" encoding="UTF-8"?>

<!-- generated on 2025-08-10 14:05:38 by Eclipse SUMO netedit Version 1.23.1
<neteditConfiguration xmlns:xsi="http://www.w3.org/2001/XMLSchema-instance" xsi:noNamespaceSchemaLocation="http://sumo.dlr.de/xsd/neteditConfiguration.xsd">

    <input>
        <sumo-net-file value="D:\桌面\sumo_random\suzhou\Suzhou.net.xml"/>
    </input>

    <output>
        <output-file value="D:\桌面\sumo_random\suzhou\Suzhou.net.xml"/>
    </output>

    <processing>
        <geometry.min-radius.fix.railways value="false"/>
        <geometry.avoid-overlap value="false"/>
        <geometry.max-grade.fix value="false"/>
        <offset.disable-normalization value="true"/>
        <lefthand value="0"/>
    </processing>

    <junctions>
        <no-turnarounds value="true"/>
        <junctions.corner-detail value="5"/>
        <junctions.limit-turn-speed value="5.50"/>
        <rectangular-lane-cut value="1"/>
    </junctions>

    <pedestrian>
        <walkingareas value="0"/>
    </pedestrian>

</neteditConfiguration>
-->

<net version="1.20" junctionCornerDetail="5" rectangularLaneCut="true" limitTurnSpeed="5.50" avoidOverlap="0" xmlns:xsi="http://www.w3.org/2001/XMLSchema-instance" xsi:noNamespaceSchemaLocation="http://sumo.dlr.de/xsd/net_file.xsd">

    <location netOffset="905.05,370.16" convBoundary="0.00,0.00,548.11,450.30" origBoundary="-905.05,-370.16,-356.94,77.70" projParameter="!"/>

    <type id="driving" priority="1" speed="13.89" disallow="pedestrian tram rail_urban rail rail_electric rail_fast ship container cable_car subway aircraft wheelchair scooter drone" width="3.65"/>
    <type id="restricted" priority="0" speed="13.89" disallow="all" width="3.65"/>

    <edge id=":0#1_0" function="internal">
        <lane id=":0#1_0_0" index="0" disallow="pedestrian tram rail_urban rail rail_electric rail_fast ship container cable_car subway aircraft wheelchair scooter drone" speed="17.88" length="1.67" width="3.50" shape="248.50,194.89 250.14,195.23"/>
    </edge>
    <edge id=":0#1_1" function="internal">
        <lane id=":0#1_1_0" index="0" disallow="pedestrian tram rail_urban rail rail_electric rail_fast ship container cable_car subway aircraft wheelchair scooter drone" speed="17.88" length="1.67" width="3.50" shape="250.86,191.81 249.23,191.46"/>
    </edge>
    <edge id=":0#2_0" function="internal">
        <lane id=":0#2_0_0" index="0" disallow="pedestrian tram rail_urban rail rail_electric rail_fast ship container cable_car subway aircraft wheelchair scooter drone" speed="17.88" length="6.57" width="3.50" shape="254.58,197.74 252.76,197.11 251.64,196.33 250.52,195.56 248.70,194.93"/>
    </edge>
    <edge id=":0#2_1" function="internal">
        <lane id=":0#2_1_0" index="0" disallow="pedestrian tram rail_urban rail rail_electric rail_fast ship container cable_car subway aircraft wheelchair scooter drone" speed="17.88" length="6.33" width="3.50" shape="249.43,191.50 255.62,192.82"/>
    </edge>
    <edge id=":0#3_0" function="internal">
        <lane id=":0#3_0_0" index="0" disallow="pedestrian tram rail_urban rail rail_electric rail_fast ship container cable_car subway aircraft wheelchair scooter drone" speed="17.88" length="3.36" width="3.50" shape="257.69,200.31 255.14,197.86"/>
        <lane id=":0#3_0_1" index="1" allow="emergency authority" speed="17.88" length="3.36" width="1.53" shape="258.40,196.93 257.54,196.60 257.03,196.17 256.52,195.73 255.66,195.40"/>
    </edge>
    <edge id=":0#3_2" function="internal">
        <lane id=":0#3_2_0" index="0" allow="emergency authority" speed="17.88" length="3.74" width="3.80" shape="257.03,188.95 260.75,185.88"/>
        <lane id=":0#3_2_1" index="1" allow="emergency authority" speed="17.88" length="3.74" width="4.20" shape="256.70,190.53 257.65,190.51 258.31,190.16 258.96,189.81 259.92,189.79"/>
        <lane id=":0#3_2_2" index="2" disallow="pedestrian tram rail_urban rail rail_electric rail_fast ship container cable_car subway aircraft wheelchair scooter drone" speed="17.88" length="3.74" width="3.50" shape="256.19,192.94 259.12,193.56"/>
    </edge>
    <edge id=":12.begin_0" function="internal">
        <lane id=":12.begin_0_0" index="0" disallow="pedestrian tram rail_urban rail rail_electric rail_fast ship container cable_car subway aircraft wheelchair scooter drone" speed="3.82" length="5.11" width="3.50" shape="73.99,-0.44 75.16,-1.49 76.12,-1.69 76.86,-1.05 77.37,0.44"/>
    </edge>
    <edge id=":13.end_0" function="internal">
        <lane id=":13.end_0_0" index="0" disallow="pedestrian tram rail_urban rail rail_electric rail_fast ship container cable_car subway aircraft wheelchair scooter drone" speed="3.82" length="5.11" width="3.50" shape="30.75,217.49 29.65,218.62 28.71,218.89 27.93,218.30 27.31,216.85"/>
    </edge>
    <edge id=":14.begin_0" function="internal">
        <lane id=":14.begin_0_0" index="0" disallow="pedestrian tram rail_urban rail rail_electric rail_fast ship container cable_car subway aircraft wheelchair scooter drone" speed="3.82" length="5.11" width="3.50" shape="548.45,371.03,-14.75 549.57,372.15,-14.75 549.83,373.09,-14.75 549.23,373.86,-14.75 547.77,374.47,-14.75"/>
    </edge>
    <edge id=":14.end_0" function="internal">
        <lane id=":14.end_0_0" index="0" disallow="pedestrian tram rail_urban rail rail_electric rail_fast ship container cable_car subway aircraft wheelchair scooter drone" speed="3.82" length="5.11" width="3.50" shape="203.96,306.64,-14.75 202.84,305.52,-14.75 202.58,304.58,-14.75 203.18,303.81,-14.75 204.64,303.20,-14.75"/>
    </edge>
    <edge id=":140_0" function="internal">
        <lane id=":140_0_0" index="0" disallow="pedestrian tram rail_urban rail rail_electric rail_fast ship container cable_car subway aircraft wheelchair scooter drone" speed="17.88" length="26.15" width="3.50" shape="370.01,202.56 365.52,228.32">
            <param key="signalID" value="236 208 190 235 189 227 218 207 237 209 191 234 226 217 205 188 233 225 216 204 187 228 222 213 198 182"/>
        </lane>
        <lane id=":140_0_1" index="1" disallow="pedestrian tram rail_urban rail rail_electric rail_fast ship container cable_car subway aircraft wheelchair scooter drone" speed="17.88" length="26.15" width="3.50" shape="366.57,201.96 362.07,227.72">
            <param key="signalID" value="242 241 240 239 238 221 220 212 211 197 196 195 193 192 181 180 179 178 177 236 208 190 235 189 227 218 207 237 209 191 234 226 217 205 188 233 225 216 204 187 228 222 213 198 182 242 241 240 239 238 221 220 212 211 197 196 195 193 192 181 180 179 178 177"/>
        </lane>
    </edge>
    <edge id=":140_2" function="internal">
        <lane id=":140_2_0" index="0" disallow="pedestrian tram rail_urban rail rail_electric rail_fast ship container cable_car subway aircraft wheelchair scooter drone" speed="11.77" length="6.34" width="3.50" shape="366.57,201.96 364.64,208.00">
            <param key="signalID" value="238 219 210 195 219 210 195"/>
        </lane>
    </edge>
    <edge id=":140_9" function="internal">
        <lane id=":140_9_0" index="0" disallow="pedestrian tram rail_urban rail rail_electric rail_fast ship container cable_car subway aircraft wheelchair scooter drone" speed="11.77" length="26.34" width="3.50" shape="364.64,208.00 363.77,210.74 358.98,216.42 352.20,219.01 343.44,218.49">
            <param key="signalID" value="238 219 210 195 219 210 195"/>
        </lane>
    </edge>
    <edge id=":140_3" function="internal">
        <lane id=":140_3_0" index="0" disallow="pedestrian tram rail_urban rail rail_electric rail_fast ship container cable_car subway aircraft wheelchair scooter drone" speed="8.92" length="18.03" width="3.50" shape="345.67,207.97 351.15,208.50 355.31,207.47 358.15,204.89 359.67,200.76">
            <param key="signalID" value="230 184 201 231 202 185 224 215 232 203 186 229 223 214 199 183"/>
        </lane>
    </edge>
    <edge id=":140_4" function="internal">
        <lane id=":140_4_0" index="0" disallow="pedestrian tram rail_urban rail rail_electric rail_fast ship container cable_car subway aircraft wheelchair scooter drone" speed="10.86" length="26.16" width="3.50" shape="344.87,211.74 353.18,214.27 358.81,217.78 361.78,222.26 362.07,227.72">
            <param key="signalID" value="225 216 207 219 210 192 177 225 216 207 239 221 212 196 180 179 195 241 240 220 211 193 178"/>
        </lane>
    </edge>
    <edge id=":140_5" function="internal">
        <lane id=":140_5_0" index="0" disallow="pedestrian tram rail_urban rail rail_electric rail_fast ship container cable_car subway aircraft wheelchair scooter drone" speed="6.70" length="9.26" width="3.50" shape="348.03,225.27 348.11,222.74 347.37,220.77 345.81,219.35 343.44,218.49">
            <param key="signalID" value="197 181 242"/>
        </lane>
        <lane id=":140_5_1" index="1" disallow="pedestrian tram rail_urban rail rail_electric rail_fast ship container cable_car subway aircraft wheelchair scooter drone" speed="8.32" length="14.83" width="3.40" shape="351.60,225.89 351.72,221.89 350.51,218.76 347.99,216.50 344.16,215.11">
            <param key="signalID" value="197 181 242"/>
        </lane>
    </edge>
    <edge id=":140_7" function="internal">
        <lane id=":140_7_0" index="0" disallow="pedestrian tram rail_urban rail rail_electric rail_fast ship container cable_car subway aircraft wheelchair scooter drone" speed="17.88" length="26.15" width="3.50" shape="355.18,226.52 359.67,200.76"/>
        <lane id=":140_7_1" index="1" disallow="pedestrian tram rail_urban rail rail_electric rail_fast ship container cable_car subway aircraft wheelchair scooter drone" speed="17.88" length="26.15" width="3.50" shape="358.63,227.12 363.12,201.36">
            <param key="signalID" value="237 232 231 230 229 228 224 223 215 214 209 203 202 201 199 198 191 186 185 184 183 182 237 232 231 230 229 228 224 223 215 214 209 203 202 201 199 198 191 186 185 184 183 182"/>
        </lane>
    </edge>
    <edge id=":15#1_0" function="internal">
        <lane id=":15#1_0_0" index="0" disallow="pedestrian tram rail_urban rail rail_electric rail_fast ship container cable_car subway aircraft wheelchair scooter drone" speed="15.65" length="0.10" width="3.50" shape="147.07,155.67 147.07,155.67"/>
    </edge>
    <edge id=":15#1_1" function="internal">
        <lane id=":15#1_1_0" index="0" disallow="pedestrian tram rail_urban rail rail_electric rail_fast ship container cable_car subway aircraft wheelchair scooter drone" speed="15.65" length="0.10" width="3.50" shape="143.63,155.01 143.63,155.01"/>
    </edge>
    <edge id=":15.begin_0" function="internal">
        <lane id=":15.begin_0_0" index="0" disallow="pedestrian tram rail_urban rail rail_electric rail_fast ship container cable_car subway aircraft wheelchair scooter drone" speed="3.82" length="5.11" width="3.50" shape="169.39,22.52 170.50,21.39 171.44,21.13 172.22,21.73 172.83,23.18"/>
    </edge>
    <edge id=":17#1_0" function="internal">
        <lane id=":17#1_0_0" index="0" disallow="pedestrian tram rail_urban rail rail_electric rail_fast ship container cable_car subway aircraft wheelchair scooter drone" speed="15.65" length="8.00" width="3.50" shape="138.38,200.36 136.85,208.21"/>
    </edge>
    <edge id=":17#1_1" function="internal">
        <lane id=":17#1_1_0" index="0" disallow="pedestrian tram rail_urban rail rail_electric rail_fast ship container cable_car subway aircraft wheelchair scooter drone" speed="15.65" length="8.00" width="3.50" shape="133.42,207.54 134.95,199.69"/>
    </edge>
    <edge id=":17#2_0" function="internal">
        <lane id=":17#2_0_0" index="0" disallow="pedestrian tram rail_urban rail rail_electric rail_fast ship container cable_car subway aircraft wheelchair scooter drone" speed="15.65" length="8.00" width="3.50" shape="134.43,220.68 132.90,228.53"/>
    </edge>
    <edge id=":17#2_1" function="internal">
        <lane id=":17#2_1_0" index="0" disallow="pedestrian tram rail_urban rail rail_electric rail_fast ship container cable_car subway aircraft wheelchair scooter drone" speed="15.65" length="8.00" width="3.50" shape="129.47,227.86 131.00,220.01"/>
    </edge>
    <edge id=":17.end_0" function="internal">
        <lane id=":17.end_0_0" index="0" disallow="pedestrian tram rail_urban rail rail_electric rail_fast ship container cable_car subway aircraft wheelchair scooter drone" speed="3.82" length="5.11" width="3.50" shape="112.15,411.06 111.17,412.29 110.26,412.65 109.42,412.14 108.67,410.76"/>
    </edge>
    <edge id=":175_0" function="internal">
        <lane id=":175_0_0" index="0" disallow="all" speed="15.65" length="32.21" width="3.50" shape="159.70,313.09,-14.83 165.34,280.50,-14.83"/>
        <lane id=":175_0_1" index="1" disallow="all" speed="15.65" length="32.21" width="3.50" shape="163.17,313.56,-14.83 168.78,281.13,-14.83"/>
        <lane id=":175_0_2" index="2" disallow="all" speed="15.65" length="32.21" width="3.50" shape="166.63,314.04,-14.83 172.23,281.75,-14.83"/>
        <lane id=":175_0_3" index="3" disallow="all" speed="15.65" length="32.21" width="3.50" shape="170.10,314.51,-14.83 175.67,282.38,-14.83"/>
        <lane id=":175_0_4" index="4" disallow="all" speed="15.65" length="32.21" width="3.50" shape="173.57,314.98,-14.83 179.11,283.01,-14.83"/>
        <lane id=":175_0_5" index="5" disallow="all" speed="15.65" length="32.21" width="3.50" shape="177.04,315.45,-14.83 182.56,283.64,-14.83"/>
        <lane id=":175_0_6" index="6" disallow="all" speed="15.65" length="32.21" width="3.50" shape="180.51,315.92,-14.83 186.00,284.26,-14.83"/>
        <lane id=":175_0_7" index="7" disallow="all" speed="15.65" length="32.21" width="3.50" shape="183.97,316.40,-14.83 189.44,284.89,-14.83"/>
        <lane id=":175_0_8" index="8" disallow="all" speed="15.65" length="32.21" width="3.50" shape="187.44,316.87,-14.83 192.89,285.52,-14.83"/>
        <lane id=":175_0_9" index="9" disallow="all" speed="15.65" length="32.21" width="3.50" shape="190.91,317.34,-14.83 196.33,286.14,-14.83"/>
        <lane id=":175_0_10" index="10" disallow="all" speed="15.65" length="32.21" width="3.50" shape="194.38,317.81,-14.83 199.77,286.77,-14.83"/>
        <lane id=":175_0_11" index="11" disallow="all" speed="15.65" length="32.21" width="3.50" shape="197.85,318.28,-14.83 203.22,287.40,-14.83"/>
    </edge>
    <edge id=":20.begin_0" function="internal">
        <lane id=":20.begin_0_0" index="0" disallow="pedestrian tram rail_urban rail rail_electric rail_fast ship container cable_car subway aircraft wheelchair scooter drone" speed="3.82" length="5.11" width="3.50" shape="-0.41,137.63 -1.48,136.47 -1.70,135.52 -1.07,134.77 0.41,134.23"/>
    </edge>
    <edge id=":22#1_0" function="internal">
        <lane id=":22#1_0_0" index="0" disallow="pedestrian tram rail_urban rail rail_electric rail_fast ship container cable_car subway aircraft wheelchair scooter drone" speed="17.88" length="2.68" width="3.50" shape="158.12,178.51 157.34,178.43 156.78,178.52 156.22,178.61 155.43,178.53"/>
        <lane id=":22#1_0_1" index="1" disallow="pedestrian tram rail_urban rail rail_electric rail_fast ship container cable_car subway aircraft wheelchair scooter drone" speed="17.88" length="2.68" width="3.42" shape="158.85,175.46 158.09,175.33 157.55,175.31 157.01,175.30 156.24,175.16"/>
    </edge>
    <edge id=":22#1_2" function="internal">
        <lane id=":22#1_2_0" index="0" disallow="pedestrian tram rail_urban rail rail_electric rail_fast ship container cable_car subway aircraft wheelchair scooter drone" speed="17.88" length="2.68" width="3.50" shape="157.59,169.56 158.33,169.85 158.78,170.19 159.23,170.54 159.97,170.82"/>
        <lane id=":22#1_2_1" index="1" allow="emergency authority" speed="17.88" length="2.68" width="1.63" shape="156.91,172.38 157.65,172.62 158.14,172.85 158.62,173.08 159.37,173.32"/>
    </edge>
    <edge id=":22#2_0" function="internal">
        <lane id=":22#2_0_0" index="0" disallow="pedestrian tram rail_urban rail rail_electric rail_fast ship container cable_car subway aircraft wheelchair scooter drone" speed="17.88" length="3.18" width="3.50" shape="161.44,178.12 160.51,178.08 159.85,178.33 159.19,178.58 158.26,178.55"/>
        <lane id=":22#2_0_1" index="1" allow="emergency authority" speed="17.88" length="3.18" width="2.78" shape="162.04,175.63 161.15,175.51 160.51,175.56 159.88,175.61 158.99,175.49"/>
    </edge>
    <edge id=":22#2_2" function="internal">
        <lane id=":22#2_2_0" index="0" disallow="pedestrian tram rail_urban rail rail_electric rail_fast ship container cable_car subway aircraft wheelchair scooter drone" speed="17.88" length="3.08" width="3.50" shape="160.10,170.85 160.95,171.18 161.47,171.58 161.99,171.97 162.84,172.30"/>
        <lane id=":22#2_2_1" index="1" allow="emergency authority" speed="17.88" length="3.08" width="0.86" shape="159.50,173.35 160.36,173.61 160.91,173.88 161.47,174.15 162.33,174.42"/>
    </edge>
    <edge id=":22#3_0" function="internal">
        <lane id=":22#3_0_0" index="0" disallow="pedestrian tram rail_urban rail rail_electric rail_fast ship container cable_car subway aircraft wheelchair scooter drone" speed="17.88" length="6.22" width="3.50" shape="168.50,178.16 166.71,177.98 165.43,178.24 164.16,178.51 162.36,178.34"/>
    </edge>
    <edge id=":22#3_1" function="internal">
        <lane id=":22#3_1_0" index="0" disallow="pedestrian tram rail_urban rail rail_electric rail_fast ship container cable_car subway aircraft wheelchair scooter drone" speed="17.88" length="6.06" width="3.50" shape="163.75,172.52 165.45,173.07 166.55,173.63 167.66,174.21 169.35,174.77"/>
    </edge>
    <edge id=":22#4_0" function="internal">
        <lane id=":22#4_0_0" index="0" disallow="pedestrian tram rail_urban rail rail_electric rail_fast ship container cable_car subway aircraft wheelchair scooter drone" speed="17.88" length="1.86" width="3.50" shape="166.89,177.76 168.70,178.21"/>
    </edge>
    <edge id=":22#4_1" function="internal">
        <lane id=":22#4_1_0" index="0" disallow="pedestrian tram rail_urban rail rail_electric rail_fast ship container cable_car subway aircraft wheelchair scooter drone" speed="17.88" length="1.96" width="3.50" shape="169.55,174.82 167.65,174.34"/>
    </edge>
    <edge id=":25_0" function="internal">
        <lane id=":25_0_0" index="0" disallow="pedestrian tram rail_urban rail rail_electric rail_fast ship container cable_car subway aircraft wheelchair scooter drone" speed="6.51" length="9.29" width="3.50" shape="52.16,153.84 49.61,153.60 47.63,154.25 46.23,155.79 45.41,158.22"/>
    </edge>
    <edge id=":25_1" function="internal">
        <lane id=":25_1_0" index="0" disallow="pedestrian tram rail_urban rail rail_electric rail_fast ship container cable_car subway aircraft wheelchair scooter drone" speed="17.88" length="22.73" width="3.50" shape="52.16,153.84 30.06,148.54"/>
        <lane id=":25_1_1" index="1" disallow="pedestrian tram rail_urban rail rail_electric rail_fast ship container cable_car subway aircraft wheelchair scooter drone" speed="17.88" length="22.73" width="3.50" shape="52.98,150.44 30.88,145.14"/>
    </edge>
    <edge id=":25_3" function="internal">
        <lane id=":25_3_0" index="0" disallow="pedestrian tram rail_urban rail rail_electric rail_fast ship container cable_car subway aircraft wheelchair scooter drone" speed="9.89" length="21.30" width="3.50" shape="52.98,150.44 47.58,148.31 44.07,144.96 42.45,140.39 42.70,134.60"/>
    </edge>
    <edge id=":25_4" function="internal">
        <lane id=":25_4_0" index="0" disallow="pedestrian tram rail_urban rail rail_electric rail_fast ship container cable_car subway aircraft wheelchair scooter drone" speed="24.59" length="22.72" width="3.50" shape="49.58,135.89 45.41,158.22"/>
        <lane id=":25_4_1" index="1" disallow="pedestrian tram rail_urban rail rail_electric rail_fast ship container cable_car subway aircraft wheelchair scooter drone" speed="24.59" length="22.72" width="3.50" shape="46.14,135.24 41.97,157.57"/>
    </edge>
    <edge id=":25_6" function="internal">
        <lane id=":25_6_0" index="0" disallow="pedestrian tram rail_urban rail rail_electric rail_fast ship container cable_car subway aircraft wheelchair scooter drone" speed="6.51" length="9.29" width="3.50" shape="32.51,138.33 35.06,138.57 37.04,137.92 38.44,136.38 39.26,133.95"/>
    </edge>
    <edge id=":25_7" function="internal">
        <lane id=":25_7_0" index="0" disallow="pedestrian tram rail_urban rail rail_electric rail_fast ship container cable_car subway aircraft wheelchair scooter drone" speed="17.88" length="22.73" width="3.50" shape="32.51,138.33 54.61,143.63"/>
        <lane id=":25_7_1" index="1" disallow="pedestrian tram rail_urban rail rail_electric rail_fast ship container cable_car subway aircraft wheelchair scooter drone" speed="17.88" length="22.73" width="3.50" shape="31.69,141.73 53.79,147.03"/>
    </edge>
    <edge id=":25_9" function="internal">
        <lane id=":25_9_0" index="0" disallow="pedestrian tram rail_urban rail rail_electric rail_fast ship container cable_car subway aircraft wheelchair scooter drone" speed="9.89" length="21.30" width="3.50" shape="31.69,141.73 37.09,143.86 40.60,147.21 42.22,151.78 41.97,157.57"/>
    </edge>
    <edge id=":25_10" function="internal">
        <lane id=":25_10_0" index="0" disallow="pedestrian tram rail_urban rail rail_electric rail_fast ship container cable_car subway aircraft wheelchair scooter drone" speed="24.59" length="22.72" width="3.50" shape="35.09,156.29 39.26,133.95"/>
        <lane id=":25_10_1" index="1" disallow="pedestrian tram rail_urban rail rail_electric rail_fast ship container cable_car subway aircraft wheelchair scooter drone" speed="24.59" length="22.72" width="3.50" shape="38.53,156.93 42.70,134.60"/>
    </edge>
    <edge id=":25_12" function="internal">
        <lane id=":25_12_0" index="0" disallow="pedestrian tram rail_urban rail rail_electric rail_fast ship container cable_car subway aircraft wheelchair scooter drone" speed="9.47" length="5.79" width="3.50" shape="38.53,156.93 40.39,151.44"/>
    </edge>
    <edge id=":25_13" function="internal">
        <lane id=":25_13_0" index="0" disallow="pedestrian tram rail_urban rail rail_electric rail_fast ship container cable_car subway aircraft wheelchair scooter drone" speed="9.47" length="15.20" width="3.50" shape="40.39,151.44 43.56,147.97 48.03,146.50 53.79,147.03"/>
    </edge>
    <edge id=":4.begin_0" function="internal">
        <lane id=":4.begin_0_0" index="0" disallow="pedestrian tram rail_urban rail rail_electric rail_fast ship container cable_car subway aircraft wheelchair scooter drone" speed="3.82" length="5.11" width="3.50" shape="379.82,29.37 380.75,28.10 381.65,27.70 382.50,28.18 383.32,29.53"/>
    </edge>
    <edge id=":5#1_0" function="internal">
        <lane id=":5#1_0_0" index="0" disallow="pedestrian tram rail_urban rail rail_electric rail_fast ship container cable_car subway aircraft wheelchair scooter drone" speed="17.88" length="2.98" width="3.50" shape="360.28,258.42 359.78,261.36"/>
        <lane id=":5#1_0_1" index="1" disallow="pedestrian tram rail_urban rail rail_electric rail_fast ship container cable_car subway aircraft wheelchair scooter drone" speed="17.88" length="2.98" width="3.50" shape="356.83,257.83 356.33,260.77"/>
    </edge>
    <edge id=":5#1_2" function="internal">
        <lane id=":5#1_2_0" index="0" disallow="pedestrian tram rail_urban rail rail_electric rail_fast ship container cable_car subway aircraft wheelchair scooter drone" speed="17.88" length="3.22" width="3.50" shape="344.25,258.72 342.77,255.40"/>
        <lane id=":5#1_2_1" index="1" allow="emergency authority" speed="17.88" length="3.22" width="3.76" shape="346.84,259.16 346.84,258.23 346.59,257.59 346.35,256.95 346.35,256.02"/>
        <lane id=":5#1_2_2" index="2" disallow="pedestrian tram rail_urban rail rail_electric rail_fast ship container cable_car subway aircraft wheelchair scooter drone" speed="17.88" length="3.22" width="3.50" shape="349.43,259.60 349.93,256.64"/>
        <lane id=":5#1_2_3" index="3" disallow="pedestrian tram rail_urban rail rail_electric rail_fast ship container cable_car subway aircraft wheelchair scooter drone" speed="17.88" length="3.22" width="3.50" shape="352.88,260.19 353.38,257.23"/>
    </edge>
    <edge id=":5#2_0" function="internal">
        <lane id=":5#2_0_0" index="0" disallow="pedestrian tram rail_urban rail rail_electric rail_fast ship container cable_car subway aircraft wheelchair scooter drone" speed="17.88" length="7.88" width="3.50" shape="359.14,265.20 357.95,272.96"/>
        <lane id=":5#2_0_1" index="1" disallow="pedestrian tram rail_urban rail rail_electric rail_fast ship container cable_car subway aircraft wheelchair scooter drone" speed="17.88" length="7.88" width="3.50" shape="355.69,264.64 354.49,272.45"/>
    </edge>
    <edge id=":5#2_2" function="internal">
        <lane id=":5#2_2_0" index="0" disallow="pedestrian tram rail_urban rail rail_electric rail_fast ship container cable_car subway aircraft wheelchair scooter drone" speed="17.88" length="8.09" width="3.50" shape="344.10,270.93 344.18,268.49 343.83,266.81 343.48,265.12 343.60,262.69"/>
        <lane id=":5#2_2_1" index="1" disallow="pedestrian tram rail_urban rail rail_electric rail_fast ship container cable_car subway aircraft wheelchair scooter drone" speed="17.88" length="8.09" width="3.50" shape="347.56,271.44 348.78,263.53"/>
        <lane id=":5#2_2_2" index="2" disallow="pedestrian tram rail_urban rail rail_electric rail_fast ship container cable_car subway aircraft wheelchair scooter drone" speed="17.88" length="8.09" width="3.50" shape="351.03,271.95 352.23,264.09"/>
    </edge>
    <edge id=":7.5_0" function="internal">
        <lane id=":7.5_0_0" index="0" disallow="pedestrian tram rail_urban rail rail_electric rail_fast ship container cable_car subway aircraft wheelchair scooter drone" speed="17.88" length="0.10" width="3.50" shape="354.30,305.21 354.30,305.21"/>
        <lane id=":7.5_0_1" index="1" disallow="pedestrian tram rail_urban rail rail_electric rail_fast ship container cable_car subway aircraft wheelchair scooter drone" speed="17.88" length="0.10" width="3.50" shape="350.81,304.90 350.81,304.90"/>
    </edge>
    <edge id=":7.5_2" function="internal">
        <lane id=":7.5_2_0" index="0" disallow="pedestrian tram rail_urban rail rail_electric rail_fast ship container cable_car subway aircraft wheelchair scooter drone" speed="17.88" length="0.10" width="3.50" shape="340.36,303.96 340.36,303.96"/>
        <lane id=":7.5_2_1" index="1" disallow="pedestrian tram rail_urban rail rail_electric rail_fast ship container cable_car subway aircraft wheelchair scooter drone" speed="17.88" length="0.10" width="3.50" shape="343.84,304.27 343.84,304.27"/>
        <lane id=":7.5_2_2" index="2" disallow="pedestrian tram rail_urban rail rail_electric rail_fast ship container cable_car subway aircraft wheelchair scooter drone" speed="17.88" length="0.10" width="3.50" shape="347.33,304.58 347.33,304.58"/>
    </edge>
    <edge id=":8.7_0" function="internal">
        <lane id=":8.7_0_0" index="0" disallow="pedestrian tram rail_urban rail rail_electric rail_fast ship container cable_car subway aircraft wheelchair scooter drone" speed="17.88" length="0.30" width="3.50" shape="350.27,351.36 350.24,351.65"/>
        <lane id=":8.7_0_1" index="1" disallow="pedestrian tram rail_urban rail rail_electric rail_fast ship container cable_car subway aircraft wheelchair scooter drone" speed="17.88" length="0.30" width="3.50" shape="346.78,351.09 346.75,351.39"/>
    </edge>
    <edge id=":8.7_2" function="internal">
        <lane id=":8.7_2_0" index="0" disallow="pedestrian tram rail_urban rail rail_electric rail_fast ship container cable_car subway aircraft wheelchair scooter drone" speed="17.88" length="0.30" width="3.50" shape="336.28,350.60 336.31,350.30"/>
        <lane id=":8.7_2_1" index="1" disallow="pedestrian tram rail_urban rail rail_electric rail_fast ship container cable_car subway aircraft wheelchair scooter drone" speed="17.88" length="0.30" width="3.50" shape="339.77,350.86 339.80,350.56"/>
        <lane id=":8.7_2_2" index="2" disallow="pedestrian tram rail_urban rail rail_electric rail_fast ship container cable_car subway aircraft wheelchair scooter drone" speed="17.88" length="0.30" width="3.50" shape="343.26,351.13 343.29,350.83"/>
    </edge>
    <edge id=":8.end_0" function="internal">
        <lane id=":8.end_0_0" index="0" disallow="pedestrian tram rail_urban rail rail_electric rail_fast ship container cable_car subway aircraft wheelchair scooter drone" speed="3.82" length="5.11" width="3.50" shape="340.69,431.91 339.71,433.15 338.81,433.53 337.97,433.02 337.19,431.65"/>
    </edge>
    <edge id=":88_0" function="internal">
        <lane id=":88_0_0" index="0" disallow="pedestrian tram rail_urban rail rail_electric rail_fast ship container cable_car subway aircraft wheelchair scooter drone" speed="6.59" length="9.50" width="4.75" shape="155.24,178.48 152.59,178.22 150.54,178.86 149.08,180.39 148.23,182.81"/>
    </edge>
    <edge id=":88_1" function="internal">
        <lane id=":88_1_0" index="0" disallow="pedestrian tram rail_urban rail rail_electric rail_fast ship container cable_car subway aircraft wheelchair scooter drone" speed="17.88" length="22.17" width="3.50" shape="155.24,178.48 133.66,173.39"/>
        <lane id=":88_1_1" index="1" disallow="pedestrian tram rail_urban rail rail_electric rail_fast ship container cable_car subway aircraft wheelchair scooter drone" speed="17.88" length="22.17" width="3.50" shape="156.05,175.12 134.48,169.99"/>
    </edge>
    <edge id=":88_3" function="internal">