<?xml version="1.0" encoding="UTF-8"?>

<!-- generated on 2025-04-15 19:07:22 by Eclipse SUMO netconvert Version 1.21.0
<netconvertConfiguration xmlns:xsi="http://www.w3.org/2001/XMLSchema-instance" xsi:noNamespaceSchemaLocation="http://sumo.dlr.de/xsd/netconvertConfiguration.xsd">

    <input>
        <opendrive-files value="D:\desktop\ramp01.xodr"/>
    </input>

    <output>
        <output-file value="D:\desktop\ramp01.net.xml"/>
    </output>

    <junctions>
        <no-turnarounds.except-deadend value="true"/>
    </junctions>

</netconvertConfiguration>
-->

<net version="1.20" junctionCornerDetail="5" rectangularLaneCut="true" limitTurnSpeed="5.50" xmlns:xsi="http://www.w3.org/2001/XMLSchema-instance" xsi:noNamespaceSchemaLocation="http://sumo.dlr.de/xsd/net_file.xsd">

    <location netOffset="2165.73,983.28" convBoundary="0.00,0.00,846.74,327.38" origBoundary="0.000000,0.000000,0.000000,0.000000" projParameter="+proj=tmerc +lat_0=31.47828542008301 +lon_0=120.8234241465704 +k=1 +x_0=0 +y_0=0 +datum=WGS84 +units=m  +vunits=m +no_defs "/>


    <edge id=":12_0" function="internal">
        <lane id=":12_0_0" index="0" disallow="pedestrian tram rail_urban rail rail_electric rail_fast ship container cable_car subway aircraft wheelchair scooter drone" speed="27.78" length="120.38" width="3.01" shape="709.73,303.49,13.57 591.27,282.05,13.15"/>
    </edge>
    <edge id=":14_0" function="internal">
        <lane id=":14_0_0" index="0" disallow="pedestrian tram rail_urban rail rail_electric rail_fast ship container cable_car subway aircraft wheelchair scooter drone" speed="20" length="3.00" width="4.06" shape="65.54,231.61,14.15 62.55,231.47,14.21"/>
        <lane id=":14_0_1" index="1" disallow="pedestrian tram rail_urban rail rail_electric rail_fast ship container cable_car subway aircraft wheelchair scooter drone" speed="20" length="3.00" width="3.81" shape="65.77,227.67,14.15 62.77,227.55,14.21"/>
        <lane id=":14_0_2" index="2" disallow="pedestrian tram rail_urban rail rail_electric rail_fast ship container cable_car subway aircraft wheelchair scooter drone" speed="20" length="3.00" width="3.89" shape="65.99,223.84,14.15 62.99,223.70,14.21"/>
    </edge>
    <edge id=":16_0" function="internal">
        <lane id=":16_0_0" index="0" disallow="pedestrian tram rail_urban rail rail_electric rail_fast ship container cable_car subway aircraft wheelchair
         scooter drone" speed="19.44" length="89.85" width="3.70" shape="490.20,241.74,12.68 504.49,245.34,12.82 528.46,250.71,13.06 555.26,256.25,13.32 578.06,260.39,13.55"/>
    </edge>
    <edge id=":16_1" function="internal">
        <lane id=":16_1_0" index="0" disallow="pedestrian tram rail_urban rail rail_electric rail_fast ship container cable_car subway aircraft wheelchair
         scooter drone" speed="19.44" length="88.70" width="4.02" shape="489.72,250.79,12.80 577.47,264.20,13.55"/>
        <lane id=":16_1_1" index="1" disallow="pedestrian tram rail_urban rail rail_electric rail_fast ship container cable_car subway aircraft wheelchair
         scooter drone" speed="19.44" length="88.70" width="3.86" shape="489.18,254.71,12.80 576.86,268.09,13.55"/>
        <lane id=":16_1_2" index="2" disallow="pedestrian tram rail_urban rail rail_electric rail_fast ship container cable_car subway aircraft wheelchair
         scooter drone" speed="19.44" length="88.70" width="3.85" shape="488.64,258.63,12.80 576.26,271.90,13.55"/>
    </edge>
    <edge id=":19_0" function="internal">
        <lane id=":19_0_0" index="0" disallow="pedestrian tram rail_urban rail rail_electric rail_fast ship container cable_car subway aircraft wheelchair scooter drone" speed="27.78" length="3.01" width="3.23" shape="719.80,285.44,13.87 720.67,285.65,13.87 721.24,285.87,13.87 721.82,286.09,13.87 722.69,286.31,13.87"/>
        <lane id=":19_0_1" index="1" disallow="pedestrian tram rail_urban rail rail_electric rail_fast ship container cable_car subway aircraft wheelchair scooter drone" speed="27.78" length="3.01" width="3.99" shape="719.09,289.23,13.87 722.02,289.86,13.87"/>
        <lane id=":19_0_2" index="2" disallow="pedestrian tram rail_urban rail rail_electric rail_fast ship container cable_car subway aircraft wheelchair scooter drone" speed="27.78" length="3.01" width="3.82" shape="718.35,293.10,13.87 721.30,293.70,13.87"/>
        <lane id=":19_0_3" index="3" disallow="pedestrian tram rail_urban rail rail_electric rail_fast ship container cable_car subway aircraft wheelchair scooter drone" speed="33.34" length="3.01" width="3.83" shape="717.64,296.89,13.87 720.60,297.46,13.87"/>
    </edge>
    <edge id=":21_0" function="internal">
        <lane id=":21_0_0" index="0" allow="emergency authority" speed="6.94" length="2.93" width="3.85" shape="774.30,326.34,13.91 773.39,326.34,13.91 772.77,326.60,13.91 772.14,326.86,13.91 771.23,326.85,13.90"/>
        <lane id=":21_0_1" index="1" disallow="pedestrian tram rail_urban rail rail_electric rail_fast ship container cable_car subway aircraft wheelchair scooter drone" speed="20" length="2.93" width="3.85" shape="774.79,323.58,13.91 771.95,323.07,13.90"/>
        <lane id=":21_0_2" index="2" disallow="pedestrian tram rail_urban rail rail_electric rail_fast ship container cable_car subway aircraft wheelchair scooter drone" speed="20" length="2.93" width="3.83" shape="775.47,319.79,13.91 772.66,319.30,13.90"/>
        <lane id=":21_0_3" index="3" disallow="pedestrian tram rail_urban rail rail_electric rail_fast ship container cable_car subway aircraft wheelchair scooter drone" speed="20" length="2.93" width="3.88" shape="776.15,316.01,13.91 773.38,315.51,13.90"/>
    </edge>
    <edge id=":23_0" function="internal">
        <lane id=":23_0_0" index="0" disallow="pedestrian tram rail_urban rail rail_electric rail_fast ship container cable_car subway aircraft wheelchair scooter drone" speed="27.78" length="103.41" width="3.91" shape="411.49,255.57,12.22 308.74,243.91,12.70"/>
       </edge>
    <edge id=":25_0" function="internal">
        <lane id=":25_0_0" index="0" disallow="pedestrian tram rail_urban rail rail_electric rail_fast ship container cable_car subway aircraft wheelchair scooter drone" speed="1.11" length="3.01" width="1.80" shape="798.63,332.57,14.01 795.64,332.17,14.00"/>
        <lane id=":25_0_1" index="1" disallow="pedestrian tram rail_urban rail rail_electric rail_fast ship container cable_car subway aircraft wheelchair scooter drone" speed="20" length="3.01" width="3.85" shape="799.46,328.21,14.01 796.49,327.68,14.00"/>
        <lane id=":25_0_2" index="2" disallow="pedestrian tram rail_urban rail rail_electric rail_fast ship container cable_car subway aircraft wheelchair scooter drone" speed="20" length="3.01" width="3.85" shape="800.17,324.44,14.01 797.21,323.90,14.00"/>
        <lane id=":25_0_3" index="3" disallow="pedestrian tram rail_urban rail rail_electric rail_fast ship container cable_car subway aircraft wheelchair scooter drone" speed="20" length="3.01" width="3.84" shape="800.88,320.68,14.01 797.93,320.12,14.00"/>
    </edge>
    <edge id=":27_0" function="internal">
        <lane id=":27_0_0" index="0" disallow="pedestrian tram rail_urban rail rail_electric rail_fast ship container cable_car subway aircraft wheelchair scooter drone" speed="27.78" length="3.00" width="4.06" shape="756.33,296.33,13.97 759.28,296.86,13.97"/>
        <lane id=":27_0_1" index="1" disallow="pedestrian tram rail_urban rail rail_electric rail_fast ship container cable_car subway aircraft wheelchair scooter drone" speed="27.78" length="3.00" width="3.81" shape="755.60,300.16,13.97 758.55,300.72,13.97"/>
        <lane id=":27_0_2" index="2" disallow="pedestrian tram rail_urban rail rail_electric rail_fast ship container cable_car subway aircraft wheelchair scooter drone" speed="27.78" length="3.00" width="3.84" shape="754.88,303.92,13.97 757.83,304.48,13.97"/>
    </edge>
    <edge id=":29_0" function="internal">
        <lane id=":29_0_0" index="0" allow="emergency authority" speed="1.11" length="3.04" width="3.01" shape="104.22,239.98,13.62 103.31,240.07,13.63 102.71,240.36,13.63 102.10,240.64,13.64 101.19,240.73,13.65"/>
        <lane id=":29_0_1" index="1" disallow="pedestrian tram rail_urban rail rail_electric rail_fast ship container cable_car subway aircraft wheelchair scooter drone" speed="20" length="3.04" width="3.40" shape="104.35,238.03,13.62 103.47,237.92,13.63 102.87,237.78,13.63 102.27,237.64,13.64 101.39,237.54,13.65"/>
        <lane id=":29_0_2" index="2" disallow="pedestrian tram rail_urban rail rail_electric rail_fast ship container cable_car subway aircraft wheelchair scooter drone" speed="20" length="3.04" width="4.05" shape="104.61,234.08,13.62 101.62,233.82,13.65"/>
        <lane id=":29_0_3" index="3" disallow="pedestrian tram rail_urban rail rail_electric rail_fast ship container cable_car subway aircraft wheelchair scooter drone" speed="20" length="3.04" width="3.84" shape="104.86,230.16,13.62 101.87,229.88,13.65"/>
        <lane id=":29_0_4" index="4" disallow="pedestrian tram rail_urban rail rail_electric rail_fast ship container cable_car subway aircraft wheelchair scooter drone" speed="20" length="3.04" width="3.83" shape="105.12,226.28,13.62 102.11,226.05,13.65"/>
    </edge>

    <edge id="-0" from="0.begin" to="16" priority="1" type="stop|driving" shape="219.08,0.00,13.55 220.42,1.46,13.55 221.76,2.91,13.55 223.11,4.36,13.55 224.46,5.81,13.55 225.82,7.25,13.55 227.17,8.70,13.55 228.53,10.14,13.55 231.25,13.02,13.55 238.05,20.22,13.55 240.77,23.10,13.56 242.12,24.55,13.56 243.48,25.99,13.57 244.83,27.44,13.58 246.18,28.89,13.58 247.53,30.34,13.59 248.88,31.79,13.60 250.22,33.25,13.61 251.55,34.70,13.61 252.89,36.17,13.63 254.22,37.63,13.64 255.54,39.10,13.65 256.86,40.58,13.66 258.17,42.06,13.67 259.48,43.54,13.68 260.78,45.03,13.69 262.07,46.52,13.69 263.36,48.02,13.70 264.64,49.52,13.71 265.92,51.04,13.72 267.18,52.55,13.70 268.44,54.08,13.68 269.69,55.61,13.66 270.93,57.14,13.64 272.16,58.69,13.62 273.38,60.24,13.60 274.59,61.80,13.57 275.79,63.37,13.55 276.99,64.95,13.53 278.17,66.54,13.51 279.34,68.13,13.49 280.49,69.74,13.48 283.87,74.47,13.44 286.12,77.62,13.42 288.37,80.78,13.39 290.62,83.94,13.36 292.86,87.10,13.34 295.10,90.26,13.29 297.33,93.43,13.25 299.57,96.60,13.20 301.80,99.77,13.16 304.03,102.94,13.11 306.25,106.11,13.06 310.70,112.46,12.97 311.81,114.05,12.95 312.93,115.63,12.93 314.05,117.21,12.90 315.17,118.80,12.88 316.29,120.38,12.86 317.42,121.95,12.83 318.55,123.53,12.80 319.69,125.09,12.77 320.83,126.66,12.74 321.98,128.22,12.71 323.13,129.78,12.69 324.30,131.33,12.67 325.47,132.87,12.66 326.64,134.41,12.64 327.83,135.94,12.61 329.03,137.46,12.58 330.23,138.98,12.55 331.45,140.49,12.52 332.67,141.99,12.50 333.91,143.48,12.48 335.16,144.96,12.46 336.44,146.46,12.45 337.74,147.96,12.43 339.04,149.45,12.41 340.36,150.93,12.39 341.68,152.41,12.36 343.01,153.88,12.34 344.35,155.34,12.32 345.70,156.79,12.31 347.06,158.23,12.29 348.42,159.67,12.28 349.80,161.10,12.27 351.18,162.51,12.25 352.58,163.92,12.23 353.98,165.33,12.20 355.39,166.72,12.19 356.81,168.10,12.17 358.24,169.48,12.16 359.68,170.84,12.14 361.12,172.20,12.12 362.58,173.54,12.12 364.04,174.88,12.10 365.51,176.20,12.09 366.99,177.52,12.08 368.48,178.82,12.07 369.98,180.12,12.06 371.49,181.41,12.05 373.00,182.68,12.04 374.52,183.94,12.03 376.06,185.20,12.01 377.60,186.44,12.01 379.14,187.67,12.00 380.70,188.89,12.00 382.27,190.10,12.00 383.84,191.29,12.00 385.42,192.48,12.01 387.01,193.65,12.01 388.61,194.81,12.01 390.22,195.96,12.01 391.83,197.10,12.01 393.45,198.23,12.02 395.09,199.34,12.02 396.72,200.44,12.02 398.37,201.52,12.02 400.03,202.60,12.03 401.69,203.66,12.03 403.36,204.71,12.05 405.04,205.74,12.06 406.73,206.76,12.07 408.42,207.78,12.10 410.12,208.78,12.11 411.82,209.78,12.13 413.53,210.77,12.15 415.25,211.74,12.17 416.97,212.71,12.19 418.70,213.67,12.21 420.43,214.62,12.22 422.16,215.56,12.23 423.91,216.49,12.25 425.65,217.41,12.26 427.41,218.32,12.28 429.17,219.23,12.29 430.93,220.12,12.30 432.70,221.00,12.32 434.47,221.88,12.33 436.25,222.74,12.34 438.03,223.60,12.36 439.82,224.44,12.38 441.61,225.28,12.40 443.40,226.10,12.42 445.20,226.92,12.43 447.01,227.73,12.46 448.82,228.52,12.47 450.63,229.31,12.48 452.45,230.09,12.49 454.28,230.86,12.51 456.10,231.62,12.52 457.94,232.36,12.54 459.77,233.10,12.55 461.61,233.83,12.56 463.45,234.55,12.57 465.30,235.26,12.59 467.15,235.96,12.59 469.01,236.65,12.60 470.87,237.32,12.61 472.73,237.99,12.61 474.60,238.65,12.62 476.46,239.30,12.62 478.34,239.94,12.62 480.21,240.57,12.62 482.09,241.19,12.63 483.98,241.79,12.63 485.86,242.39,12.64 487.75,242.98,12.65 489.65,243.56,12.68">
        <lane id="-0_0" index="0" disallow="pedestrian tram rail_urban rail rail_electric rail_fast ship container cable_car subway aircraft wheelchair scooter drone" speed="11.11" length="370.05" width="3.00" shape="222.97,-3.58,13.55 224.31,-2.13,13.55 225.64,-0.69,13.55 226.98,0.75,13.55 228.33,2.20,13.55 229.68,3.64,13.55 231.03,5.08,13.55 232.38,6.51,13.55 235.09,9.39,13.55 241.90,16.59,13.55 244.62,19.48,13.56 245.98,20.93,13.56 247.34,22.38,13.57 248.70,23.83,13.58 250.06,25.28,13.58 251.41,26.74,13.59 252.76,28.20,13.60 254.11,29.67,13.61 255.46,31.14,13.61 256.80,32.61,13.63 258.14,34.09,13.64 259.48,35.57,13.65 260.81,37.06,13.66 262.13,38.55,13.67 263.45,40.05,13.68 264.77,41.55,13.69 266.08,43.06,13.69 267.38,44.58,13.70 268.68,46.11,13.71 269.97,47.64,13.72 271.25,49.17,13.70 272.53,50.72,13.68 273.80,52.27,13.66 275.06,53.84,13.64 276.31,55.41,13.62 277.55,56.99,13.60 278.78,58.57,13.57 280.01,60.17,13.55 281.22,61.78,13.53 282.42,63.39,13.51 283.61,65.02,13.49 284.79,66.66,13.48 288.18,71.39,13.44 290.43,74.55,13.42 292.68,77.71,13.39 294.93,80.88,13.36 297.17,84.04,13.34 299.42,87.21,13.29 301.65,90.38,13.25 303.89,93.55,13.20 306.12,96.72,13.16 308.35,99.90,13.11 310.58,103.07,13.06 315.03,109.42,12.97 316.14,111.00,12.95 317.25,112.58,12.93 318.37,114.16,12.90 319.48,115.73,12.88 320.60,117.30,12.86 321.72,118.87,12.83 322.84,120.43,12.80 323.97,121.98,12.77 325.10,123.53,12.74 326.23,125.08,12.71 327.37,126.61,12.69 328.52,128.14,12.67 329.68,129.66,12.66 330.84,131.18,12.64 332.00,132.69,12.61 333.18,134.18,12.58 334.36,135.67,12.55 335.55,137.15,12.52 336.76,138.62,12.50 337.97,140.08,12.48 339.19,141.54,12.46 340.46,143.02,12.45 341.73,144.49,12.43 343.01,145.96,12.41 344.31,147.42,12.39 345.61,148.87,12.36 346.92,150.31,12.34 348.24,151.75,12.32 349.56,153.18,12.31 350.90,154.60,12.29 352.24,156.01,12.28 353.60,157.41,12.27 354.96,158.81,12.25 356.33,160.19,12.23 357.71,161.57,12.20 359.10,162.94,12.19 360.49,164.30,12.17 361.89,165.65,12.16 363.31,166.99,12.14 364.73,168.32,12.12 366.16,169.65,12.12 367.59,170.96,12.10 369.04,172.26,12.09 370.49,173.55,12.08 371.96,174.84,12.07 373.43,176.11,12.06 374.91,177.37,12.05 376.39,178.62,12.04 377.89,179.86,12.03 379.39,181.09,12.01 380.90,182.31,12.01 382.42,183.52,12.00 383.95,184.71,12.00 385.48,185.90,12.00 387.03,187.07,12.00 388.58,188.23,12.01 390.14,189.39,12.01 391.70,190.52,12.01 393.28,191.65,12.01 394.86,192.76,12.01 396.45,193.87,12.02 398.05,194.96,12.02 399.65,196.03,12.02 401.27,197.10,12.02 402.89,198.15,12.03 404.52,199.19,12.03 406.15,200.21,12.05 407.80,201.23,12.06 409.46,202.23,12.07 411.13,203.23,12.10 412.80,204.22,12.11 414.48,205.20,12.13 416.17,206.18,12.15 417.86,207.14,12.17 419.55,208.09,12.19 421.25,209.04,12.21 422.96,209.97,12.22 424.67,210.90,12.23 426.39,211.82,12.25 428.11,212.73,12.26 429.84,213.62,12.28 431.57,214.51,12.29 433.31,215.39,12.30 435.05,216.26,12.32 436.79,217.13,12.33 438.55,217.98,12.34 440.30,218.82,12.36 442.06,219.65,12.38 443.83,220.48,12.40 445.60,221.29,12.42 447.38,222.10,12.43 449.16,222.89,12.46 450.94,223.68,12.47 452.73,224.45,12.48 454.52,225.22,12.49 456.32,225.98,12.51 458.12,226.72,12.52 459.92,227.46,12.54 461.73,228.19,12.55 463.54,228.91,12.56 465.36,229.62,12.57 467.18,230.31,12.59 469.01,231.00,12.59 470.84,231.68,12.60 472.67,232.35,12.61 474.50,233.01,12.61 476.34,233.66,12.62 478.19,234.30,12.62 480.03,234.93,12.62 481.88,235.55,12.62 483.73,236.16,12.63 485.59,236.76,12.63 487.45,237.34,12.64 489.31,237.92,12.65 491.19,238.50,12.68" type="stop"/>
        <lane id="-0_1" index="1" disallow="pedestrian tram rail_urban rail rail_electric rail_fast ship container cable_car subway aircraft wheelchair scooter drone" speed="11.11" length="370.05" width="3.79" shape="220.47,-1.28,13.55 221.81,0.17,13.55 223.15,1.62,13.55 224.50,3.07,13.55 225.85,4.51,13.55 227.20,5.96,13.55 228.55,7.40,13.55 229.91,8.84,13.55 232.62,11.72,13.55 239.43,18.92,13.55 242.15,21.81,13.56 243.51,23.25,13.56 244.86,24.70,13.57 246.22,26.14,13.58 247.57,27.60,13.58 248.92,29.05,13.59 250.27,30.50,13.60 251.61,31.96,13.61 252.95,33.43,13.61 254.29,34.89,13.63 255.62,36.36,13.64 256.95,37.84,13.65 258.27,39.32,13.66 259.59,40.80,13.67 260.90,42.29,13.68 262.21,43.78,13.69 263.51,45.28,13.69 264.80,46.79,13.70 266.09,48.30,13.71 267.37,49.82,13.72 268.64,51.34,13.70 269.90,52.87,13.68 271.16,54.41,13.66 272.41,55.96,13.64 273.65,57.51,13.62 274.87,59.08,13.60 276.09,60.65,13.57 277.30,62.23,13.55 278.50,63.81,13.53 279.69,65.41,13.51 280.87,67.02,13.49 282.03,68.63,13.48 285.42,73.36,13.44 287.67,76.52,13.42 289.92,79.68,13.39 292.16,82.84,13.36 294.40,86.01,13.34 296.64,89.17,13.29 298.88,92.34,13.25 301.11,95.51,13.20 303.35,98.68,13.16 305.58,101.85,13.11 307.80,105.02,13.06 312.25,111.37,12.97 313.36,112.96,12.95 314.48,114.54,12.93 315.59,116.12,12.90 316.71,117.70,12.88 317.83,119.27,12.86 318.96,120.85,12.83 320.09,122.42,12.80 321.22,123.98,12.77 322.36,125.54,12.74 323.50,127.09,12.71 324.65,128.64,12.69 325.81,130.19,12.67 326.97,131.72,12.66 328.15,133.25,12.64 329.33,134.77,12.61 330.51,136.29,12.58 331.71,137.79,12.55 332.92,139.29,12.52 334.13,140.78,12.50 335.36,142.26,12.48 336.60,143.73,12.46 337.88,145.23,12.45 339.17,146.72,12.43 340.47,148.20,12.41 341.77,149.67,12.39 343.09,151.14,12.36 344.41,152.60,12.34 345.74,154.05,12.32 347.08,155.49,12.31 348.43,156.93,12.29 349.79,158.36,12.28 351.16,159.78,12.27 352.54,161.19,12.25 353.92,162.59,12.23 355.32,163.98,12.20 356.72,165.36,12.19 358.13,166.74,12.17 359.55,168.11,12.16 360.98,169.46,12.14 362.41,170.81,12.12 363.86,172.15,12.12 365.31,173.47,12.10 366.78,174.79,12.09 368.25,176.10,12.08 369.73,177.40,12.07 371.22,178.68,12.06 372.71,179.96,12.05 374.22,181.23,12.04 375.73,182.48,12.03 377.25,183.73,12.01 378.78,184.96,12.01 380.32,186.18,12.00 381.86,187.39,12.00 383.42,188.59,12.00 384.98,189.78,12.00 386.55,190.96,12.01 388.13,192.12,12.01 389.72,193.28,12.01 391.31,194.42,12.01 392.92,195.55,12.01 394.53,196.66,12.02 396.15,197.77,12.02 397.77,198.86,12.02 399.41,199.94,12.02 401.05,201.00,12.03 402.70,202.06,12.03 404.36,203.10,12.05 406.03,204.12,12.06 407.71,205.14,12.07 409.39,206.15,12.10 411.08,207.15,12.11 412.78,208.14,12.13 414.48,209.12,12.15 416.18,210.09,12.17 417.89,211.06,12.19 419.61,212.01,12.21 421.33,212.96,12.22 423.06,213.89,12.23 424.80,214.82,12.25 426.53,215.73,12.26 428.28,216.64,12.28 430.03,217.54,12.29 431.78,218.43,12.30 433.54,219.30,12.32 435.30,220.17,12.33 437.07,221.03,12.34 438.84,221.89,12.36 440.62,222.73,12.38 442.40,223.56,12.40 444.19,224.38,12.42 445.98,225.19,12.43 447.78,225.99,12.46 449.58,226.79,12.47 451.38,227.57,12.48 453.19,228.34,12.49 455.01,229.11,12.51 456.83,229.86,12.52 458.65,230.61,12.54 460.47,231.34,12.55 462.30,232.07,12.56 464.14,232.78,12.57 465.98,233.49,12.59 467.82,234.18,12.59 469.66,234.87,12.60 471.51,235.54,12.61 473.36,236.21,12.61 475.22,236.86,12.62 477.08,237.51,12.62 478.94,238.14,12.62 480.81,238.77,12.62 482.68,239.38,12.63 484.56,239.99,12.63 486.43,240.58,12.64 488.31,241.17,12.65 490.20,241.74,12.68" type="driving"/>
    </edge>
    <edge id="-1" from="27" to="1.end" priority="1" type="stop|driving|driving|driving|driving" shape="757.48,306.37,13.97 763.32,307.48,13.99 775.00,309.69,14.04 790.58,312.64,14.10 798.37,314.11,14.12 806.15,315.59,14.15 811.99,316.70,14.17">
        <lane id="-1_0" index="0" disallow="pedestrian tram rail_urban rail rail_electric rail_fast ship container cable_car subway aircraft wheelchair scooter drone" speed="1" length="55.49" width="2.46" shape="760.23,291.89,13.97 766.06,292.99,13.99 777.74,295.21,14.04 793.32,298.15,14.10 801.11,299.63,14.12 808.91,301.11,14.15 814.75,302.22,14.17" type="stop"/>
        <lane id="-1_1" index="1" disallow="pedestrian tram rail_urban rail rail_electric rail_fast ship container cable_car subway aircraft wheelchair scooter drone" speed="27.78" length="55.49" width="1.80" shape="759.83,293.98,13.97 765.67,295.09,13.99 777.34,297.30,14.04 792.92,300.25,14.10 800.72,301.72,14.12 808.51,303.20,14.15 814.35,304.32,14.17" type="driving"/>
        <lane id="-1_2" index="2" disallow="pedestrian tram rail_urban rail rail_electric rail_fast ship container cable_car subway aircraft wheelchair scooter drone" speed="27.78" length="55.49" width="4.06" shape="759.28,296.86,13.97 765.12,297.97,13.99 776.80,300.18,14.04 792.38,303.13,14.10 800.17,304.60,14.12 807.96,306.08,14.15 813.81,307.20,14.17" type="driving"/>
        <lane id="-1_3" index="3" disallow="pedestrian tram rail_urban rail rail_electric rail_fast ship container cable_car subway aircraft wheelchair scooter drone" speed="27.78" length="55.49" width="3.81" shape="758.55,300.72,13.97 764.39,301.83,13.99 776.07,304.05,14.04 791.65,306.99,14.10 799.44,308.47,14.12 807.23,309.95,14.15 813.07,311.06,14.17" type="driving"/>
        <lane id="-1_4" index="4" disallow="pedestrian tram rail_urban rail rail_electric rail_fast ship container cable_car subway aircraft wheelchair scooter drone" speed="33.34" length="55.49" width="3.84" shape="757.83,304.48,13.97 763.67,305.59,13.99 775.36,307.80,14.04 790.93,310.75,14.10 798.72,312.23,14.12 806.51,313.71,14.15 812.35,314.82,14.17" type="driving"/>
    </edge>
    <edge id="-10" from="16" to="19" priority="1" type="stop|driving|driving|driving|driving" shape="575.96,273.81,13.55 579.90,274.42,13.53 583.84,275.05,13.53 587.77,275.68,13.58 591.71,276.31,13.62 595.64,276.95,13.67 599.58,277.60,13.72 603.51,278.25,13.76 607.44,278.91,13.77 611.37,279.57,13.73 615.30,280.24,13.71 619.23,280.91,13.70 623.16,281.58,13.70 627.09,282.26,13.71 631.02,282.95,13.71 634.94,283.64,13.72 638.87,284.33,13.73 642.79,285.03,13.73 646.72,285.73,13.74 650.64,286.43,13.74 654.57,287.14,13.74 658.49,287.85,13.75 662.41,288.56,13.75 666.33,289.28,13.75 670.25,290.00,13.76 674.18,290.72,13.76 678.10,291.44,13.76 682.02,292.17,13.77 685.94,292.90,13.78 693.77,294.36,13.80 701.61,295.83,13.82 709.45,297.30,13.84 717.28,298.78,13.87">
        <lane id="-10_0" index="0" disallow="pedestrian tram rail_urban rail rail_electric rail_fast ship container cable_car subway aircraft wheelchair scooter drone" speed="1" length="143.82" width="2.84" shape="578.57,257.16,13.55 582.52,257.78,13.53 586.48,258.41,13.53 590.45,259.04,13.58 594.41,259.68,13.62 598.36,260.32,13.67 602.32,260.97,13.72 606.28,261.63,13.76 610.23,262.29,13.77 614.18,262.96,13.73 618.13,263.63,13.71 622.08,264.30,13.70 626.03,264.98,13.70 629.97,265.66,13.71 633.92,266.35,13.71 637.86,267.04,13.72 641.80,267.74,13.73 645.75,268.44,13.73 649.69,269.14,13.74 653.62,269.85,13.74 657.56,270.56,13.74 661.50,271.27,13.75 665.43,271.98,13.75 669.37,272.70,13.75 673.30,273.42,13.76 677.23,274.15,13.76 681.16,274.87,13.76 685.09,275.60,13.77 689.02,276.33,13.78 696.87,277.79,13.80 704.72,279.27,13.82 712.57,280.74,13.84 720.41,282.22,13.87" type="stop"/>
        <lane id="-10_1" index="1" disallow="pedestrian tram rail_urban rail rail_electric rail_fast ship container cable_car subway aircraft wheelchair scooter drone" speed="27.78" length="143.82" width="3.70" shape="578.06,260.39,13.55 582.01,261.01,13.53 585.97,261.64,13.53 589.93,262.27,13.58 593.88,262.91,13.62 597.84,263.55,13.67 601.79,264.20,13.72 605.74,264.85,13.76 609.69,265.51,13.77 613.64,266.18,13.73 617.58,266.85,13.71 621.53,267.52,13.70 625.47,268.20,13.70 629.41,268.88,13.71 633.36,269.57,13.71 637.30,270.26,13.72 641.24,270.96,13.73 645.17,271.66,13.73 649.11,272.36,13.74 653.05,273.06,13.74 656.98,273.77,13.74 660.91,274.49,13.75 664.85,275.20,13.75 668.78,275.92,13.75 672.71,276.64,13.76 676.64,277.36,13.76 680.57,278.09,13.76 684.49,278.82,13.77 688.42,279.55,13.78 696.27,281.01,13.80 704.12,282.48,13.82 711.96,283.96,13.84 719.80,285.44,13.87" type="driving"/>
        <lane id="-10_2" index="2" disallow="pedestrian tram rail_urban rail rail_electric rail_fast ship container cable_car subway aircraft wheelchair scooter drone" speed="27.78" length="143.82" width="4.02" shape="577.47,264.20,13.55 581.41,264.82,13.53 585.36,265.45,13.53 589.31,266.08,13.58 593.26,266.72,13.62 597.21,267.36,13.67 601.16,268.01,13.72 605.10,268.66,13.76 609.05,269.32,13.77 612.99,269.99,13.73 616.93,270.65,13.71 620.88,271.33,13.70 624.81,272.01,13.70 628.75,272.69,13.71 632.69,273.37,13.71 636.63,274.06,13.72 640.56,274.76,13.73 644.50,275.46,13.73 648.43,276.16,13.74 652.36,276.86,13.74 656.29,277.57,13.74 660.22,278.28,13.75 664.15,279.00,13.75 668.08,279.72,13.75 672.01,280.44,13.76 675.94,281.16,13.76 679.86,281.88,13.76 683.79,282.61,13.77 687.72,283.34,13.78 695.56,284.80,13.80 703.41,286.27,13.82 711.25,287.75,13.84 719.09,289.23,13.87" type="driving"/>
        <lane id="-10_3" index="3" disallow="pedestrian tram rail_urban rail rail_electric rail_fast ship container cable_car subway aircraft wheelchair scooter drone" speed="27.78" length="143.82" width="3.86" shape="576.86,268.09,13.55 580.80,268.71,13.53 584.74,269.34,13.53 588.69,269.97,13.58 592.63,270.61,13.62 596.58,271.25,13.67 600.52,271.90,13.72 604.46,272.55,13.76 608.40,273.21,13.77 612.34,273.87,13.73 616.27,274.54,13.71 620.21,275.21,13.70 624.14,275.89,13.70 628.08,276.57,13.71 632.01,277.26,13.71 635.94,277.95,13.72 639.88,278.64,13.73 643.81,279.34,13.73 647.74,280.04,13.74 651.67,280.74,13.74 655.59,281.45,13.74 659.52,282.16,13.75 663.45,282.87,13.75 667.37,283.59,13.75 671.30,284.31,13.76 675.22,285.03,13.76 679.15,285.76,13.76 683.07,286.48,13.77 686.99,287.21,13.78 694.84,288.68,13.80 702.68,290.15,13.82 710.52,291.62,13.84 718.35,293.10,13.87" type="driving"/>
        <lane id="-10_4" index="4" disallow="pedestrian tram rail_urban rail rail_electric rail_fast ship container cable_car subway aircraft wheelchair scooter drone" speed="33.34" length="143.82" width="3.85" shape="576.26,271.90,13.55 580.20,272.52,13.53 584.14,273.15,13.53 588.08,273.78,13.58 592.02,274.41,13.62 595.95,275.05,13.67 599.89,275.70,13.72 603.83,276.35,13.76 607.76,277.01,13.77 611.69,277.67,13.73 615.63,278.34,13.71 619.56,279.01,13.70 623.49,279.69,13.70 627.42,280.37,13.71 631.35,281.05,13.71 635.28,281.74,13.72 639.20,282.43,13.73 643.13,283.13,13.73 647.06,283.83,13.74 650.98,284.54,13.74 654.91,285.24,13.74 658.83,285.95,13.75 662.76,286.67,13.75 666.68,287.38,13.75 670.60,288.10,13.76 674.52,288.82,13.76 678.45,289.55,13.76 682.37,290.27,13.77 686.29,291.00,13.78 694.13,292.47,13.80 701.97,293.93,13.82 709.80,295.41,13.84 717.64,296.89,13.87" type="driving"/>
    </edge>
    <edge id="-11" from="14" to="11.end" priority="1" type="stop|driving|driving|driving|driving" shape="63.10,221.76,14.21 59.16,221.54,14.28 55.22,221.31,14.35 51.27,221.10,14.41 47.33,220.88,14.49 43.39,220.67,14.55 39.44,220.46,14.62 35.50,220.25,14.70 31.56,220.04,14.78 27.61,219.84,14.86 23.67,219.64,14.94 19.72,219.45,15.00 15.78,219.25,15.07 11.83,219.07,15.14 7.89,218.88,15.21 3.94,218.70,15.29 0.00,218.52,15.36">
        <lane id="-11_0" index="0" disallow="pedestrian tram rail_urban rail rail_electric rail_fast ship container cable_car subway aircraft wheelchair scooter drone" speed="20" length="63.09" width="2.88" shape="62.25,236.74,14.21 58.31,236.51,14.28 54.38,236.29,14.35 50.45,236.07,14.41 46.51,235.86,14.49 42.58,235.64,14.55 38.65,235.43,14.62 34.72,235.23,14.70 30.78,235.02,14.78 26.85,234.82,14.86 22.92,234.62,14.94 18.99,234.43,15.00 15.06,234.24,15.07 11.12,234.05,15.14 7.19,233.86,15.21 3.26,233.68,15.29 -0.68,233.50,15.36" type="stop"/>
        <lane id="-11_1" index="1" disallow="pedestrian tram rail_urban rail rail_electric rail_fast ship container cable_car subway aircraft wheelchair scooter drone" speed="20" length="63.09" width="1.80" shape="62.38,234.40,14.21 58.44,234.18,14.28 54.51,233.95,14.35 50.58,233.74,14.41 46.64,233.52,14.49 42.71,233.31,14.55 38.77,233.10,14.62 34.84,232.89,14.70 30.90,232.69,14.78 26.97,232.48,14.86 23.04,232.29,14.94 19.10,232.09,15.00 15.17,231.90,15.07 11.23,231.71,15.14 7.30,231.53,15.21 3.37,231.35,15.29 -0.57,231.17,15.36" type="driving"/>
        <lane id="-11_2" index="2" disallow="pedestrian tram rail_urban rail rail_electric rail_fast ship container cable_car subway aircraft wheelchair scooter drone" speed="20" length="63.09" width="4.06" shape="62.55,231.47,14.21 58.61,231.25,14.28 54.67,231.03,14.35 50.74,230.81,14.41 46.80,230.59,14.49 42.86,230.38,14.55 38.93,230.17,14.62 34.99,229.96,14.70 31.05,229.76,14.78 27.12,229.56,14.86 23.18,229.36,14.94 19.25,229.17,15.00 15.31,228.97,15.07 11.37,228.79,15.14 7.44,228.60,15.21 3.50,228.42,15.29 -0.44,228.24,15.36" type="driving"/>
        <lane id="-11_3" index="3" disallow="pedestrian tram rail_urban rail rail_electric rail_fast ship container cable_car subway aircraft wheelchair scooter drone" speed="20" length="63.09" width="3.81" shape="62.77,227.55,14.21 58.83,227.32,14.28 54.89,227.10,14.35 50.95,226.88,14.41 47.01,226.67,14.49 43.08,226.45,14.55 39.14,226.24,14.62 35.20,226.03,14.70 31.26,225.83,14.78 27.32,225.63,14.86 23.38,225.43,14.94 19.44,225.24,15.00 15.50,225.04,15.07 11.56,224.85,15.14 7.62,224.67,15.21 3.68,224.49,15.29 -0.26,224.31,15.36" type="driving"/>