<?xml version="1.0" encoding="UTF-8"?>
<routes>
    <vType id="cav" accel="2.6" decel="4.5" length="5.0" minGap="2.5" tau="1.0" maxSpeed="25.0" sigma="0.0" speedDev="0.0" guiShape="passenger" />
    <vType id="hdv" accel="2.6" decel="4.5" length="5.0" minGap="2.5" tau="1.0" maxSpeed="25.0" sigma="0.7" speedDev="0.15" lcStrategic="1.0" guiShape="passenger" />
    <route id="main_route" edges="main_h1 main_h2 main_h3 main_h4" />
    <route id="ramp_route" edges="ramp_h5 ramp_h6 main_h3 main_h4" />
    <vehicle id="main_L0_0" type="hdv" depart="0.00" route="main_route" departLane="0" departSpeed="max" />
    <vehicle id="main_L1_0" type="cav" depart="0.00" route="main_route" departLane="1" departSpeed="max" />
    <vehicle id="main_L2_0" type="hdv" depart="0.00" route="main_route" departLane="2" departSpeed="max" />
    <vehicle id="main_L3_0" type="cav" depart="0.00" route="main_route" departLane="3" departSpeed="max" />
    <vehicle id="ramp_R1_0" type="hdv" depart="0.00" route="ramp_route" departLane="1" departSpeed="max" />
    <vehicle id="main_L0_1" type="cav" depart="1.80" route="main_route" departLane="0" departSpeed="max" />
    <vehicle id="main_L1_1" type="hdv" depart="1.80" route="main_route" departLane="1" departSpeed="max" />
    <vehicle id="main_L2_1" type="cav" depart="1.80" route="main_route" departLane="2" departSpeed="max" />
    <vehicle id="main_L3_1" type="cav" depart="1.80" route="main_route" departLane="3" departSpeed="max" />
    <vehicle id="main_L0_2" type="cav" depart="3.60" route="main_route" departLane="0" departSpeed="max" />
    <vehicle id="main_L1_2" type="cav" depart="3.60" route="main_route" departLane="1" departSpeed="max" />
    <vehicle id="main_L2_2" type="hdv" depart="3.60" route="main_route" departLane="2" departSpeed="max" />
    <vehicle id="main_L3_2" type="hdv" depart="3.60" route="main_route" departLane="3" departSpeed="max" />
    <vehicle id="ramp_R1_1" type="hdv" depart="3.60" route="ramp_route" departLane="1" departSpeed="max" />
    <vehicle id="main_L0_3" type="cav" depart="5.40" route="main_route" departLane="0" departSpeed="max" />
    <vehicle id="main_L1_3" type="cav" depart="5.40" route="main_route" departLane="1" departSpeed="max" />
    <vehicle id="main_L2_3" type="hdv" depart="5.40" route="main_route" departLane="2" departSpeed="max" />
    <vehicle id="main_L3_3" type="cav" depart="5.40" route="main_route" departLane="3" departSpeed="max" />
    <vehicle id="main_L0_4" type="hdv" depart="7.20" route="main_route" departLane="0" departSpeed="max" />
    <vehicle id="main_L1_4" type="hdv" depart="7.20" route="main_route" departLane="1" departSpeed="max" />
    <vehicle id="main_L2_4" type="cav" depart="7.20" route="main_route" departLane="2" departSpeed="max" />
    <vehicle id="main_L3_4" type="cav" depart="7.20" route="main_route" departLane="3" departSpeed="max" />
    <vehicle id="ramp_R1_2" type="hdv" depart="7.20" route="ramp_route" departLane="1" departSpeed="max" />
    <vehicle id="main_L0_5" type="hdv" depart="9.00" route="main_route" departLane="0" departSpeed="max" />
    <vehicle id="main_L1_5" type="cav" depart="9.00" route="main_route" departLane="1" departSpeed="max" />
    <vehicle id="main_L2_5" type="hdv" depart="9.00" route="main_route" departLane="2" departSpeed="max" />
    <vehicle id="main_L3_5" type="cav" depart="9.00" route="main_route" departLane="3" departSpeed="max" />
    <vehicle id="main_L0_6" type="hdv" depart="10.80" route="main_route" departLane="0" departSpeed="max" />
    <vehicle id="main_L1_6" type="cav" depart="10.80" route="main_route" departLane="1" departSpeed="max" />
    <vehicle id="main_L2_6" type="cav" depart="10.80" route="main_route" departLane="2" departSpeed="max" />
    <vehicle id="main_L3_6" type="cav" depart="10.80" route="main_route" departLane="3" departSpeed="max" />
    <vehicle id="ramp_R1_3" type="cav" depart="10.80" route="ramp_route" departLane="1" departSpeed="max" />
    <vehicle id="main_L0_7" type="cav" depart="12.60" route="main_route" departLane="0" departSpeed="max" />
    <vehicle id="main_L1_7" type="hdv" depart="12.60" route="main_route" departLane="1" departSpeed="max" />
    <vehicle id="main_L2_7" type="cav" depart="12.60" route="main_route" departLane="2" departSpeed="max" />
    <vehicle id="main_L3_7" type="hdv" depart="12.60" route="main_route" departLane="3" departSpeed="max" />
    <vehicle id="main_L0_8" type="cav" depart="14.40" route="main_route" departLane="0" departSpeed="max" />
    <vehicle id="main_L1_8" type="hdv" depart="14.40" route="main_route" departLane="1" departSpeed="max" />
    <vehicle id="main_L2_8" type="hdv" depart="14.40" route="main_route" departLane="2" departSpeed="max" />
    <vehicle id="main_L3_8" type="cav" depart="14.40" route="main_route" departLane="3" departSpeed="max" />
    <vehicle id="ramp_R1_4" type="cav" depart="14.40" route="ramp_route" departLane="1" departSpeed="max" />
    <vehicle id="main_L0_9" type="cav" depart="16.20" route="main_route" departLane="0" departSpeed="max" />
    <vehicle id="main_L1_9" type="cav" depart="16.20" route="main_route" departLane="1" departSpeed="max" />
    <vehicle id="main_L2_9" type="cav" depart="16.20" route="main_route" departLane="2" departSpeed="max" />
    <vehicle id="main_L3_9" type="cav" depart="16.20" route="main_route" departLane="3" departSpeed="max" />
    <vehicle id="main_L0_10" type="cav" depart="18.00" route="main_route" departLane="0" departSpeed="max" />
    <vehicle id="main_L1_10" type="cav" depart="18.00" route="main_route" departLane="1" departSpeed="max" />
    <vehicle id="main_L2_10" type="cav" depart="18.00" route="main_route" departLane="2" departSpeed="max" />
    <vehicle id="main_L3_10" type="cav" depart="18.00" route="main_route" departLane="3" departSpeed="max" />
    <vehicle id="ramp_R1_5" type="cav" depart="18.00" route="ramp_route" departLane="1" departSpeed="max" />
    <vehicle id="main_L0_11" type="cav" depart="19.80" route="main_route" departLane="0" departSpeed="max" />
    <vehicle id="main_L1_11" type="cav" depart="19.80" route="main_route" departLane="1" departSpeed="max" />
    <vehicle id="main_L2_11" type="cav" depart="19.80" route="main_route" departLane="2" departSpeed="max" />
    <vehicle id="main_L3_11" type="cav" depart="19.80" route="main_route" departLane="3" departSpeed="max" />
    <vehicle id="main_L0_12" type="cav" depart="21.60" route="main_route" departLane="0" departSpeed="max" />
    <vehicle id="main_L1_12" type="cav" depart="21.60" route="main_route" departLane="1" departSpeed="max" />
    <vehicle id="main_L2_12" type="cav" depart="21.60" route="main_route" departLane="2" departSpeed="max" />
    <vehicle id="main_L3_12" type="cav" depart="21.60" route="main_route" departLane="3" departSpeed="max" />
    <vehicle id="ramp_R1_6" type="cav" depart="21.60" route="ramp_route" departLane="1" departSpeed="max" />
    <vehicle id="main_L0_13" type="cav" depart="23.40" route="main_route" departLane="0" departSpeed="max" />
    <vehicle id="main_L1_13" type="cav" depart="23.40" route="main_route" departLane="1" departSpeed="max" />
    <vehicle id="main_L2_13" type="hdv" depart="23.40" route="main_route" departLane="2" departSpeed="max" />
    <vehicle id="main_L3_13" type="cav" depart="23.40" route="main_route" departLane="3" departSpeed="max" />
    <vehicle id="main_L0_14" type="hdv" depart="25.20" route="main_route" departLane="0" departSpeed="max" />
    <vehicle id="main_L1_14" type="hdv" depart="25.20" route="main_route" departLane="1" departSpeed="max" />
    <vehicle id="main_L2_14" type="hdv" depart="25.20" route="main_route" departLane="2" departSpeed="max" />
    <vehicle id="main_L3_14" type="hdv" depart="25.20" route="main_route" departLane="3" departSpeed="max" />
    <vehicle id="ramp_R1_7" type="hdv" depart="25.20" route="ramp_route" departLane="1" departSpeed="max" />
    <vehicle id="main_L0_15" type="cav" depart="27.00" route="main_route" departLane="0" departSpeed="max" />
    <vehicle id="main_L1_15" type="hdv" depart="27.00" route="main_route" departLane="1" departSpeed="max" />
    <vehicle id="main_L2_15" type="cav" depart="27.00" route="main_route" departLane="2" departSpeed="max" />
    <vehicle id="main_L3_15" type="cav" depart="27.00" route="main_route" departLane="3" departSpeed="max" />
    <vehicle id="main_L0_16" type="cav" depart="28.80" route="main_route" departLane="0" departSpeed="max" />
    <vehicle id="main_L1_16" type="hdv" depart="28.80" route="main_route" departLane="1" departSpeed="max" />
    <vehicle id="main_L2_16" type="hdv" depart="28.80" route="main_route" departLane="2" departSpeed="max" />
    <vehicle id="main_L3_16" type="hdv" depart="28.80" route="main_route" departLane="3" departSpeed="max" />
    <vehicle id="ramp_R1_8" type="hdv" depart="28.80" route="ramp_route" departLane="1" departSpeed="max" />
    <vehicle id="main_L0_17" type="cav" depart="30.60" route="main_route" departLane="0" departSpeed="max" />
    <vehicle id="main_L1_17" type="cav" depart="30.60" route="main_route" departLane="1" departSpeed="max" />
    <vehicle id="main_L2_17" type="cav" depart="30.60" route="main_route" departLane="2" departSpeed="max" />
    <vehicle id="main_L3_17" type="hdv" depart="30.60" route="main_route" departLane="3" departSpeed="max" />
    <vehicle id="main_L0_18" type="hdv" depart="32.40" route="main_route" departLane="0" departSpeed="max" />
    <vehicle id="main_L1_18" type="cav" depart="32.40" route="main_route" departLane="1" departSpeed="max" />
    <vehicle id="main_L2_18" type="hdv" depart="32.40" route="main_route" departLane="2" departSpeed="max" />
    <vehicle id="main_L3_18" type="cav" depart="32.40" route="main_route" departLane="3" departSpeed="max" />
    <vehicle id="ramp_R1_9" type="cav" depart="32.40" route="ramp_route" departLane="1" departSpeed="max" />
    <vehicle id="main_L0_19" type="cav" depart="34.20" route="main_route" departLane="0" departSpeed="max" />
    <vehicle id="main_L1_19" type="cav" depart="34.20" route="main_route" departLane="1" departSpeed="max" />
    <vehicle id="main_L2_19" type="cav" depart="34.20" route="main_route" departLane="2" departSpeed="max" />
    <vehicle id="main_L3_19" type="cav" depart="34.20" route="main_route" departLane="3" departSpeed="max" />
    <vehicle id="main_L0_20" type="hdv" depart="36.00" route="main_route" departLane="0" departSpeed="max" />
    <vehicle id="main_L1_20" type="hdv" depart="36.00" route="main_route" departLane="1" departSpeed="max" />
    <vehicle id="main_L2_20" type="hdv" depart="36.00" route="main_route" departLane="2" departSpeed="max" />
    <vehicle id="main_L3_20" type="cav" depart="36.00" route="main_route" departLane="3" departSpeed="max" />
    <vehicle id="ramp_R1_10" type="hdv" depart="36.00" route="ramp_route" departLane="1" departSpeed="max" />
    <vehicle id="main_L0_21" type="hdv" depart="37.80" route="main_route" departLane="0" departSpeed="max" />
    <vehicle id="main_L1_21" type="cav" depart="37.80" route="main_route" departLane="1" departSpeed="max" />
    <vehicle id="main_L2_21" type="cav" depart="37.80" route="main_route" departLane="2" departSpeed="max" />
    <vehicle id="main_L3_21" type="cav" depart="37.80" route="main_route" departLane="3" departSpeed="max" />
    <vehicle id="main_L0_22" type="cav" depart="39.60" route="main_route" departLane="0" departSpeed="max" />
    <vehicle id="main_L1_22" type="cav" depart="39.60" route="main_route" departLane="1" departSpeed="max" />
    <vehicle id="main_L2_22" type="hdv" depart="39.60" route="main_route" departLane="2" departSpeed="max" />
    <vehicle id="main_L3_22" type="hdv" depart="39.60" route="main_route" departLane="3" departSpeed="max" />
    <vehicle id="ramp_R1_11" type="hdv" depart="39.60" route="ramp_route" departLane="1" departSpeed="max" />
    <vehicle id="main_L0_23" type="cav" depart="41.40" route="main_route" departLane="0" departSpeed="max" />
    <vehicle id="main_L1_23" type="cav" depart="41.40" route="main_route" departLane="1" departSpeed="max" />
    <vehicle id="main_L2_23" type="cav" depart="41.40" route="main_route" departLane="2" departSpeed="max" />
    <vehicle id="main_L3_23" type="cav" depart="41.40" route="main_route" departLane="3" departSpeed="max" />
    <vehicle id="main_L0_24" type="hdv" depart="43.20" route="main_route" departLane="0" departSpeed="max" />
    <vehicle id="main_L1_24" type="cav" depart="43.20" route="main_route" departLane="1" departSpeed="max" />
    <vehicle id="main_L2_24" type="hdv" depart="43.20" route="main_route" departLane="2" departSpeed="max" />
    <vehicle id="main_L3_24" type="hdv" depart="43.20" route="main_route" departLane="3" departSpeed="max" />
    <vehicle id="ramp_R1_12" type="hdv" depart="43.20" route="ramp_route" departLane="1" departSpeed="max" />
    <vehicle id="main_L0_25" type="cav" depart="45.00" route="main_route" departLane="0" departSpeed="max" />
    <vehicle id="main_L1_25" type="cav" depart="45.00" route="main_route" departLane="1" departSpeed="max" />
    <vehicle id="main_L2_25" type="cav" depart="45.00" route="main_route" departLane="2" departSpeed="max" />
    <vehicle id="main_L3_25" type="hdv" depart="45.00" route="main_route" departLane="3" departSpeed="max" />
    <vehicle id="main_L0_26" type="cav" depart="46.80" route="main_route" departLane="0" departSpeed="max" />
    <vehicle id="main_L1_26" type="cav" depart="46.80" route="main_route" departLane="1" departSpeed="max" />
    <vehicle id="main_L2_26" type="cav" depart="46.80" route="main_route" departLane="2" departSpeed="max" />
    <vehicle id="main_L3_26" type="hdv" depart="46.80" route="main_route" departLane="3" departSpeed="max" />
    <vehicle id="ramp_R1_13" type="hdv" depart="46.80" route="ramp_route" departLane="1" departSpeed="max" />
    <vehicle id="main_L0_27" type="cav" depart="48.60" route="main_route" departLane="0" departSpeed="max" />
    <vehicle id="main_L1_27" type="hdv" depart="48.60" route="main_route" departLane="1" departSpeed="max" />
    <vehicle id="main_L2_27" type="cav" depart="48.60" route="main_route" departLane="2" departSpeed="max" />
    <vehicle id="main_L3_27" type="hdv" depart="48.60" route="main_route" departLane="3" departSpeed="max" />
    <vehicle id="main_L0_28" type="hdv" depart="50.40" route="main_route" departLane="0" departSpeed="max" />
    <vehicle id="main_L1_28" type="cav" depart="50.40" route="main_route" departLane="1" departSpeed="max" />
    <vehicle id="main_L2_28" type="hdv" depart="50.40" route="main_route" departLane="2" departSpeed="max" />
    <vehicle id="main_L3_28" type="hdv" depart="50.40" route="main_route" departLane="3" departSpeed="max" />
    <vehicle id="ramp_R1_14" type="cav" depart="50.40" route="ramp_route" departLane="1" departSpeed="max" />
    <vehicle id="main_L0_29" type="hdv" depart="52.20" route="main_route" departLane="0" departSpeed="max" />
    <vehicle id="main_L1_29" type="hdv" depart="52.20" route="main_route" departLane="1" departSpeed="max" />
    <vehicle id="main_L2_29" type="cav" depart="52.20" route="main_route" departLane="2" departSpeed="max" />
    <vehicle id="main_L3_29" type="cav" depart="52.20" route="main_route" departLane="3" departSpeed="max" />
    <vehicle id="main_L0_30" type="hdv" depart="54.00" route="main_route" departLane="0" departSpeed="max" />
    <vehicle id="main_L1_30" type="cav" depart="54.00" route="main_route" departLane="1" departSpeed="max" />
    <vehicle id="main_L2_30" type="hdv" depart="54.00" route="main_route" departLane="2" departSpeed="max" />
    <vehicle id="main_L3_30" type="cav" depart="54.00" route="main_route" departLane="3" departSpeed="max" />
    <vehicle id="ramp_R1_15" type="cav" depart="54.00" route="ramp_route" departLane="1" departSpeed="max" />
    <vehicle id="main_L0_31" type="hdv" depart="55.80" route="main_route" departLane="0" departSpeed="max" />
    <vehicle id="main_L1_31" type="cav" depart="55.80" route="main_route" departLane="1" departSpeed="max" />
    <vehicle id="main_L2_31" type="cav" depart="55.80" route="main_route" departLane="2" departSpeed="max" />
    <vehicle id="main_L3_31" type="cav" depart="55.80" route="main_route" departLane="3" departSpeed="max" />
    <vehicle id="main_L0_32" type="cav" depart="57.60" route="main_route" departLane="0" departSpeed="max" />
    <vehicle id="main_L1_32" type="hdv" depart="57.60" route="main_route" departLane="1" departSpeed="max" />
    <vehicle id="main_L2_32" type="cav" depart="57.60" route="main_route" departLane="2" departSpeed="max" />
    <vehicle id="main_L3_32" type="cav" depart="57.60" route="main_route" departLane="3" departSpeed="max" />
    <vehicle id="ramp_R1_16" type="hdv" depart="57.60" route="ramp_route" departLane="1" departSpeed="max" />
    <vehicle id="main_L0_33" type="hdv" depart="59.40" route="main_route" departLane="0" departSpeed="max" />
    <vehicle id="main_L1_33" type="hdv" depart="59.40" route="main_route" departLane="1" departSpeed="max" />
    <vehicle id="main_L2_33" type="cav" depart="59.40" route="main_route" departLane="2" departSpeed="max" />
    <vehicle id="main_L3_33" type="hdv" depart="59.40" route="main_route" departLane="3" departSpeed="max" />
    <vehicle id="main_L0_34" type="cav" depart="61.20" route="main_route" departLane="0" departSpeed="max" />
    <vehicle id="main_L1_34" type="hdv" depart="61.20" route="main_route" departLane="1" departSpeed="max" />
    <vehicle id="main_L2_34" type="cav" depart="61.20" route="main_route" departLane="2" departSpeed="max" />
    <vehicle id="main_L3_34" type="cav" depart="61.20" route="main_route" departLane="3" departSpeed="max" />
    <vehicle id="ramp_R1_17" type="cav" depart="61.20" route="ramp_route" departLane="1" departSpeed="max" />
    <vehicle id="main_L0_35" type="cav" depart="63.00" route="main_route" departLane="0" departSpeed="max" />
    <vehicle id="main_L1_35" type="hdv" depart="63.00" route="main_route" departLane="1" departSpeed="max" />
    <vehicle id="main_L2_35" type="hdv" depart="63.00" route="main_route" departLane="2" departSpeed="max" />
    <vehicle id="main_L3_35" type="cav" depart="63.00" route="main_route" departLane="3" departSpeed="max" />
    <vehicle id="main_L0_36" type="hdv" depart="64.80" route="main_route" departLane="0" departSpeed="max" />
    <vehicle id="main_L1_36" type="hdv" depart="64.80" route="main_route" departLane="1" departSpeed="max" />
    <vehicle id="main_L2_36" type="cav" depart="64.80" route="main_route" departLane="2" departSpeed="max" />
    <vehicle id="main_L3_36" type="hdv" depart="64.80" route="main_route" departLane="3" departSpeed="max" />
    <vehicle id="ramp_R1_18" type="cav" depart="64.80" route="ramp_route" departLane="1" departSpeed="max" />
    <vehicle id="main_L0_37" type="hdv" depart="66.60" route="main_route" departLane="0" departSpeed="max" />
    <vehicle id="main_L1_37" type="cav" depart="66.60" route="main_route" departLane="1" departSpeed="max" />
    <vehicle id="main_L2_37" type="hdv" depart="66.60" route="main_route" departLane="2" departSpeed="max" />
    <vehicle id="main_L3_37" type="hdv" depart="66.60" route="main_route" departLane="3" departSpeed="max" />
    <vehicle id="main_L0_38" type="hdv" depart="68.40" route="main_route" departLane="0" departSpeed="max" />
    <vehicle id="main_L1_38" type="cav" depart="68.40" route="main_route" departLane="1" departSpeed="max" />
    <vehicle id="main_L2_38" type="cav" depart="68.40" route="main_route" departLane="2" departSpeed="max" />
    <vehicle id="main_L3_38" type="cav" depart="68.40" route="main_route" departLane="3" departSpeed="max" />
    <vehicle id="ramp_R1_19" type="cav" depart="68.40" route="ramp_route" departLane="1" departSpeed="max" />
    <vehicle id="main_L0_39" type="cav" depart="70.20" route="main_route" departLane="0" departSpeed="max" />
    <vehicle id="main_L1_39" type="cav" depart="70.20" route="main_route" departLane="1" departSpeed="max" />
    <vehicle id="main_L2_39" type="hdv" depart="70.20" route="main_route" departLane="2" departSpeed="max" />
    <vehicle id="main_L3_39" type="hdv" depart="70.20" route="main_route" departLane="3" departSpeed="max" />
    <vehicle id="main_L0_40" type="hdv" depart="72.00" route="main_route" departLane="0" departSpeed="max" />
    <vehicle id="main_L1_40" type="cav" depart="72.00" route="main_route" departLane="1" departSpeed="max" />
    <vehicle id="main_L2_40" type="hdv" depart="72.00" route="main_route" departLane="2" departSpeed="max" />
    <vehicle id="main_L3_40" type="hdv" depart="72.00" route="main_route" departLane="3" departSpeed="max" />
    <vehicle id="ramp_R1_20" type="cav" depart="72.00" route="ramp_route" departLane="1" departSpeed="max" />
    <vehicle id="main_L0_41" type="cav" depart="73.80" route="main_route" departLane="0" departSpeed="max" />
    <vehicle id="main_L1_41" type="cav" depart="73.80" route="main_route" departLane="1" departSpeed="max" />
    <vehicle id="main_L2_41" type="hdv" depart="73.80" route="main_route" departLane="2" departSpeed="max" />
    <vehicle id="main_L3_41" type="cav" depart="73.80" route="main_route" departLane="3" departSpeed="max" />
    <vehicle id="main_L0_42" type="cav" depart="75.60" route="main_route" departLane="0" departSpeed="max" />
    <vehicle id="main_L1_42" type="cav" depart="75.60" route="main_route" departLane="1" departSpeed="max" />
    <vehicle id="main_L2_42" type="cav" depart="75.60" route="main_route" departLane="2" departSpeed="max" />
    <vehicle id="main_L3_42" type="hdv" depart="75.60" route="main_route" departLane="3" departSpeed="max" />
    <vehicle id="ramp_R1_21" type="cav" depart="75.60" route="ramp_route" departLane="1" departSpeed="max" />
    <vehicle id="main_L0_43" type="cav" depart="77.40" route="main_route" departLane="0" departSpeed="max" />
    <vehicle id="main_L1_43" type="hdv" depart="77.40" route="main_route" departLane="1" departSpeed="max" />
    <vehicle id="main_L2_43" type="cav" depart="77.40" route="main_route" departLane="2" departSpeed="max" />
    <vehicle id="main_L3_43" type="hdv" depart="77.40" route="main_route" departLane="3" departSpeed="max" />
    <vehicle id="main_L0_44" type="cav" depart="79.20" route="main_route" departLane="0" departSpeed="max" />
    <vehicle id="main_L1_44" type="cav" depart="79.20" route="main_route" departLane="1" departSpeed="max" />
    <vehicle id="main_L2_44" type="hdv" depart="79.20" route="main_route" departLane="2" departSpeed="max" />
    <vehicle id="main_L3_44" type="cav" depart="79.20" route="main_route" departLane="3" departSpeed="max" />
    <vehicle id="ramp_R1_22" type="cav" depart="79.20" route="ramp_route" departLane="1" departSpeed="max" />
    <vehicle id="main_L0_45" type="cav" depart="81.00" route="main_route" departLane="0" departSpeed="max" />
    <vehicle id="main_L1_45" type="hdv" depart="81.00" route="main_route" departLane="1" departSpeed="max" />
    <vehicle id="main_L2_45" type="cav" depart="81.00" route="main_route" departLane="2" departSpeed="max" />
    <vehicle id="main_L3_45" type="cav" depart="81.00" route="main_route" departLane="3" departSpeed="max" />
    <vehicle id="main_L0_46" type="cav" depart="82.80" route="main_route" departLane="0" departSpeed="max" />
    <vehicle id="main_L1_46" type="cav" depart="82.80" route="main_route" departLane="1" departSpeed="max" />
    <vehicle id="main_L2_46" type="cav" depart="82.80" route="main_route" departLane="2" departSpeed="max" />
    <vehicle id="main_L3_46" type="cav" depart="82.80" route="main_route" departLane="3" departSpeed="max" />
    <vehicle id="ramp_R1_23" type="cav" depart="82.80" route="ramp_route" departLane="1" departSpeed="max" />
    <vehicle id="main_L0_47" type="cav" depart="84.60" route="main_route" departLane="0" departSpeed="max" />
    <vehicle id="main_L1_47" type="cav" depart="84.60" route="main_route" departLane="1" departSpeed="max" />
    <vehicle id="main_L2_47" type="hdv" depart="84.60" route="main_route" departLane="2" departSpeed="max" />
    <vehicle id="main_L3_47" type="hdv" depart="84.60" route="main_route" departLane="3" departSpeed="max" />
    <vehicle id="main_L0_48" type="hdv" depart="86.40" route="main_route" departLane="0" departSpeed="max" />
    <vehicle id="main_L1_48" type="hdv" depart="86.40" route="main_route" departLane="1" departSpeed="max" />
    <vehicle id="main_L2_48" type="hdv" depart="86.40" route="main_route" departLane="2" departSpeed="max" />
    <vehicle id="main_L3_48" type="hdv" depart="86.40" route="main_route" departLane="3" departSpeed="max" />
    <vehicle id="ramp_R1_24" type="cav" depart="86.40" route="ramp_route" departLane="1" departSpeed="max" />
    <vehicle id="main_L0_49" type="cav" depart="88.20" route="main_route" departLane="0" departSpeed="max" />
    <vehicle id="main_L1_49" type="hdv" depart="88.20" route="main_route" departLane="1" departSpeed="max" />
    <vehicle id="main_L2_49" type="cav" depart="88.20" route="main_route" departLane="2" departSpeed="max" />
    <vehicle id="main_L3_49" type="cav" depart="88.20" route="main_route" departLane="3" departSpeed="max" />
    <vehicle id="main_L0_50" type="cav" depart="90.00" route="main_route" departLane="0" departSpeed="max" />
    <vehicle id="main_L1_50" type="cav" depart="90.00" route="main_route" departLane="1" departSpeed="max" />
    <vehicle id="main_L2_50" type="cav" depart="90.00" route="main_route" departLane="2" departSpeed="max" />
    <vehicle id="main_L3_50" type="hdv" depart="90.00" route="main_route" departLane="3" departSpeed="max" />
    <vehicle id="ramp_R1_25" type="hdv" depart="90.00" route="ramp_route" departLane="1" departSpeed="max" />
    <vehicle id="main_L0_51" type="cav" depart="91.80" route="main_route" departLane="0" departSpeed="max" />
    <vehicle id="main_L1_51" type="hdv" depart="91.80" route="main_route" departLane="1" departSpeed="max" />
    <vehicle id="main_L2_51" type="cav" depart="91.80" route="main_route" departLane="2" departSpeed="max" />
    <vehicle id="main_L3_51" type="cav" depart="91.80" route="main_route" departLane="3" departSpeed="max" />
    <vehicle id="main_L0_52" type="cav" depart="93.60" route="main_route" departLane="0" departSpeed="max" />
    <vehicle id="main_L1_52" type="cav" depart="93.60" route="main_route" departLane="1" departSpeed="max" />
    <vehicle id="main_L2_52" type="cav" depart="93.60" route="main_route" departLane="2" departSpeed="max" />
    <vehicle id="main_L3_52" type="hdv" depart="93.60" route="main_route" departLane="3" departSpeed="max" />
    <vehicle id="ramp_R1_26" type="hdv" depart="93.60" route="ramp_route" departLane="1" departSpeed="max" />
    <vehicle id="main_L0_53" type="hdv" depart="95.40" route="main_route" departLane="0" departSpeed="max" />
    <vehicle id="main_L1_53" type="cav" depart="95.40" route="main_route" departLane="1" departSpeed="max" />
    <vehicle id="main_L2_53" type="cav" depart="95.40" route="main_route" departLane="2" departSpeed="max" />
    <vehicle id="main_L3_53" type="hdv" depart="95.40" route="main_route" departLane="3" departSpeed="max" />
    <vehicle id="main_L0_54" type="hdv" depart="97.20" route="main_route" departLane="0" departSpeed="max" />
    <vehicle id="main_L1_54" type="hdv" depart="97.20" route="main_route" departLane="1" departSpeed="max" />
    <vehicle id="main_L2_54" type="cav" depart="97.20" route="main_route" departLane="2" departSpeed="max" />
    <vehicle id="main_L3_54" type="cav" depart="97.20" route="main_route" departLane="3" departSpeed="max" />
    <vehicle id="ramp_R1_27" type="cav" depart="97.20" route="ramp_route" departLane="1" departSpeed="max" />
    <vehicle id="main_L0_55" type="hdv" depart="99.00" route="main_route" departLane="0" departSpeed="max" />
    <vehicle id="main_L1_55" type="cav" depart="99.00" route="main_route" departLane="1" departSpeed="max" />
    <vehicle id="main_L2_55" type="cav" depart="99.00" route="main_route" departLane="2" departSpeed="max" />
    <vehicle id="main_L3_55" type="hdv" depart="99.00" route="main_route" departLane="3" departSpeed="max" />
    <vehicle id="main_L0_56" type="cav" depart="100.80" route="main_route" departLane="0" departSpeed="max" />
    <vehicle id="main_L1_56" type="cav" depart="100.80" route="main_route" departLane="1" departSpeed="max" />
    <vehicle id="main_L2_56" type="hdv" depart="100.80" route="main_route" departLane="2" departSpeed="max" />
    <vehicle id="main_L3_56" type="hdv" depart="100.80" route="main_route" departLane="3" departSpeed="max" />
    <vehicle id="ramp_R1_28" type="hdv" depart="100.80" route="ramp_route" departLane="1" departSpeed="max" />
    <vehicle id="main_L0_57" type="hdv" depart="102.60" route="main_route" departLane="0" departSpeed="max" />
    <vehicle id="main_L1_57" type="hdv" depart="102.60" route="main_route" departLane="1" departSpeed="max" />
    <vehicle id="main_L2_57" type="hdv" depart="102.60" route="main_route" departLane="2" departSpeed="max" />
    <vehicle id="main_L3_57" type="hdv" depart="102.60" route="main_route" departLane="3" departSpeed="max" />
    <vehicle id="main_L0_58" type="cav" depart="104.40" route="main_route" departLane="0" departSpeed="max" />
    <vehicle id="main_L1_58" type="cav" depart="104.40" route="main_route" departLane="1" departSpeed="max" />
    <vehicle id="main_L2_58" type="hdv" depart="104.40" route="main_route" departLane="2" departSpeed="max" />
    <vehicle id="main_L3_58" type="cav" depart="104.40" route="main_route" departLane="3" departSpeed="max" />
    <vehicle id="ramp_R1_29" type="hdv" depart="104.40" route="ramp_route" departLane="1" departSpeed="max" />
    <vehicle id="main_L0_59" type="cav" depart="106.20" route="main_route" departLane="0" departSpeed="max" />
    <vehicle id="main_L1_59" type="cav" depart="106.20" route="main_route" departLane="1" departSpeed="max" />