<nodes>
    <node id="n_main_0" x="0.0" y="0.0" type="priority"/>
    <node id="n_main_1" x="200.0" y="0.0" type="priority"/>
    <node id="n_main_2" x="500.0" y="0.0" type="priority"/>
    <node id="n_merge" x="800.0" y="0.0" type="priority"/>
    <node id="n_main_3" x="1000.0" y="0.0" type="priority"/>

    <node id="n_ramp_0" x="153.5898" y="-200.0" type="priority"/>
    <node id="n_ramp_1" x="240.1924" y="-150.0" type="priority"/>
</nodes>
